/*---------------------------------------------------------------------------*\
| =========                 |                                                 |
| \\      /  F ield         | OpenFOAM: The Open Source CFD Toolbox           |
|  \\    /   O peration     | Version:  v1906                                 |
|   \\  /    A nd           | Web:      www.OpenFOAM.com                      |
|    \\/     M anipulation  |                                                 |
\*---------------------------------------------------------------------------*/
Build  : v1906 OPENFOAM=1906
Arch   : "LSB;label=32;scalar=64"
Exec   : buoyantSimpleFoam
Date   : Jun 20 2020
Time   : 11:59:17
Host   : LAPTOP-ODVE2UUP
PID    : 1427
I/O    : uncollated
Case   : /home/allen/heat_transfer/buoyantSimpleFoam/buoyantCavity
nProcs : 1
trapFpe: Floating point exception trapping enabled (FOAM_SIGFPE).
fileModificationChecking : Monitoring run-time modified files using timeStampMaster (fileModificationSkew 10)
allowSystemOperations : Allowing user-supplied system call operations

// * * * * * * * * * * * * * * * * * * * * * * * * * * * * * * * * * * * * * //
Create time

Create mesh for time = 0


SIMPLE: convergence criteria
    field p_rgh	 tolerance 0.0001
    field U	 tolerance 0.0001
    field h	 tolerance 0.0001
    field "(k|epsilon|omega)"	 tolerance 0.001

Reading thermophysical properties

Selecting thermodynamics package 
{
    type            heRhoThermo;
    mixture         pureMixture;
    transport       const;
    thermo          hConst;
    equationOfState perfectGas;
    specie          specie;
    energy          sensibleEnthalpy;
}

Reading field U

Reading/calculating face flux field phi

Creating turbulence model

Selecting turbulence model type RAS
Selecting RAS turbulence model kOmegaSST
Selecting patchDistMethod meshWave
RAS
{
    RASModel        kOmegaSST;
    turbulence      on;
    printCoeffs     on;
    alphaK1         0.85;
    alphaK2         1;
    alphaOmega1     0.5;
    alphaOmega2     0.856;
    gamma1          0.555556;
    gamma2          0.44;
    beta1           0.075;
    beta2           0.0828;
    betaStar        0.09;
    a1              0.31;
    b1              1;
    c1              10;
    F3              false;
    decayControl    false;
    kInf            0;
    omegaInf        0;
}


Reading g

Reading hRef
Calculating field g.h

Reading field p_rgh

No MRF models present

Radiation model not active: radiationProperties not found
Selecting radiationModel none
No finite volume options present

Starting time loop

Time = 1

DILUPBiCGStab:  Solving for h, Initial residual = 0.999998, Final residual = 0.00226489, No Iterations 1
GAMG:  Solving for p_rgh, Initial residual = 0.0977446, Final residual = 0.000905371, No Iterations 51
time step continuity errors : sum local = 2.3919e-05, global = -2.02164e-19, cumulative = -2.02164e-19
rho min/max : 1.18877 1.20877
DILUPBiCGStab:  Solving for omega, Initial residual = 0.143354, Final residual = 0.00110839, No Iterations 1
DILUPBiCGStab:  Solving for k, Initial residual = 1, Final residual = 0.0156993, No Iterations 1
ExecutionTime = 2.83 s  ClockTime = 5 s

Time = 2

DILUPBiCGStab:  Solving for h, Initial residual = 0.455573, Final residual = 0.00027083, No Iterations 1
GAMG:  Solving for p_rgh, Initial residual = 0.479051, Final residual = 0.00363784, No Iterations 24
time step continuity errors : sum local = 0.0033609, global = 6.59837e-18, cumulative = 6.39621e-18
rho min/max : 1.18866 1.20888
DILUPBiCGStab:  Solving for omega, Initial residual = 0.021448, Final residual = 1.65733e-05, No Iterations 1
DILUPBiCGStab:  Solving for k, Initial residual = 0.36654, Final residual = 0.000639893, No Iterations 1
ExecutionTime = 3.63 s  ClockTime = 6 s

Time = 3

DILUPBiCGStab:  Solving for h, Initial residual = 0.013402, Final residual = 1.54014e-05, No Iterations 1
GAMG:  Solving for p_rgh, Initial residual = 0.971739, Final residual = 0.00152344, No Iterations 1
time step continuity errors : sum local = 0.0368186, global = 1.44151e-17, cumulative = 2.08113e-17
rho min/max : 1.18842 1.2087
DILUPBiCGStab:  Solving for omega, Initial residual = 0.00152392, Final residual = 3.54907e-05, No Iterations 1
DILUPBiCGStab:  Solving for k, Initial residual = 0.0311253, Final residual = 0.000427125, No Iterations 1
ExecutionTime = 3.93 s  ClockTime = 6 s

Time = 4

DILUPBiCGStab:  Solving for h, Initial residual = 0.00739355, Final residual = 5.29265e-05, No Iterations 1
GAMG:  Solving for p_rgh, Initial residual = 0.435477, Final residual = 0.00130942, No Iterations 1
time step continuity errors : sum local = 0.0623667, global = -1.20665e-17, cumulative = 8.74474e-18
rho min/max : 1.18824 1.20852
DILUPBiCGStab:  Solving for omega, Initial residual = 0.000540173, Final residual = 1.75477e-05, No Iterations 1
DILUPBiCGStab:  Solving for k, Initial residual = 0.0392608, Final residual = 0.000416704, No Iterations 1
ExecutionTime = 4.29 s  ClockTime = 7 s

Time = 5

DILUPBiCGStab:  Solving for h, Initial residual = 0.00585629, Final residual = 4.98659e-05, No Iterations 1
GAMG:  Solving for p_rgh, Initial residual = 0.202749, Final residual = 0.00108067, No Iterations 1
time step continuity errors : sum local = 0.0710938, global = -1.79846e-17, cumulative = -9.23981e-18
rho min/max : 1.18812 1.20839
DILUPBiCGStab:  Solving for omega, Initial residual = 0.00126289, Final residual = 4.11646e-05, No Iterations 1
DILUPBiCGStab:  Solving for k, Initial residual = 0.0418451, Final residual = 0.000640961, No Iterations 1
ExecutionTime = 4.6 s  ClockTime = 7 s

Time = 6

DILUPBiCGStab:  Solving for h, Initial residual = 0.00540937, Final residual = 5.03657e-05, No Iterations 1
GAMG:  Solving for p_rgh, Initial residual = 0.100762, Final residual = 0.000987355, No Iterations 1
time step continuity errors : sum local = 0.0682289, global = -3.70236e-17, cumulative = -4.62634e-17
rho min/max : 1.18801 1.20829
DILUPBiCGStab:  Solving for omega, Initial residual = 0.00110824, Final residual = 4.16398e-05, No Iterations 1
DILUPBiCGStab:  Solving for k, Initial residual = 0.0422247, Final residual = 0.000859506, No Iterations 1
ExecutionTime = 4.92 s  ClockTime = 7 s

Time = 7

DILUPBiCGStab:  Solving for h, Initial residual = 0.00548089, Final residual = 5.19152e-05, No Iterations 1
GAMG:  Solving for p_rgh, Initial residual = 0.0463987, Final residual = 0.000371779, No Iterations 20
time step continuity errors : sum local = 0.0267939, global = -1.06772e-17, cumulative = -5.69406e-17
rho min/max : 1.18792 1.2082
DILUPBiCGStab:  Solving for omega, Initial residual = 0.00128236, Final residual = 2.63421e-05, No Iterations 1
DILUPBiCGStab:  Solving for k, Initial residual = 0.101566, Final residual = 0.000503445, No Iterations 1
ExecutionTime = 5.61 s  ClockTime = 8 s

Time = 8

DILUPBiCGStab:  Solving for h, Initial residual = 0.00531727, Final residual = 3.66852e-05, No Iterations 1
GAMG:  Solving for p_rgh, Initial residual = 0.0244596, Final residual = 0.000223941, No Iterations 3
time step continuity errors : sum local = 0.0210388, global = 2.77775e-18, cumulative = -5.41628e-17
rho min/max : 1.1878 1.20815
DILUPBiCGStab:  Solving for omega, Initial residual = 0.000912197, Final residual = 1.52973e-05, No Iterations 1
DILUPBiCGStab:  Solving for k, Initial residual = 0.106581, Final residual = 0.00056807, No Iterations 1
ExecutionTime = 6.01 s  ClockTime = 9 s

Time = 9

DILUPBiCGStab:  Solving for h, Initial residual = 0.00610046, Final residual = 3.41989e-05, No Iterations 1
GAMG:  Solving for p_rgh, Initial residual = 0.0357854, Final residual = 0.000299, No Iterations 8
time step continuity errors : sum local = 0.0317867, global = 1.24211e-17, cumulative = -4.17417e-17
rho min/max : 1.1877 1.20805
DILUPBiCGStab:  Solving for omega, Initial residual = 0.000817905, Final residual = 1.17463e-05, No Iterations 1
DILUPBiCGStab:  Solving for k, Initial residual = 0.0389676, Final residual = 0.000554899, No Iterations 1
ExecutionTime = 6.58 s  ClockTime = 9 s

Time = 10

DILUPBiCGStab:  Solving for h, Initial residual = 0.00726491, Final residual = 2.33123e-05, No Iterations 1
GAMG:  Solving for p_rgh, Initial residual = 0.0440707, Final residual = 0.000404169, No Iterations 5
time step continuity errors : sum local = 0.0473636, global = 2.71292e-17, cumulative = -1.46125e-17
rho min/max : 1.1876 1.20793
DILUPBiCGStab:  Solving for omega, Initial residual = 0.000661897, Final residual = 1.00541e-05, No Iterations 1
DILUPBiCGStab:  Solving for k, Initial residual = 0.030709, Final residual = 0.000553972, No Iterations 1
ExecutionTime = 7 s  ClockTime = 10 s

Time = 11

DILUPBiCGStab:  Solving for h, Initial residual = 0.00667183, Final residual = 1.78943e-05, No Iterations 1
GAMG:  Solving for p_rgh, Initial residual = 0.0480374, Final residual = 0.000440438, No Iterations 1
time step continuity errors : sum local = 0.0532417, global = 1.1129e-17, cumulative = -3.48351e-18
rho min/max : 1.18751 1.20781
DILUPBiCGStab:  Solving for omega, Initial residual = 0.000519723, Final residual = 1.25015e-05, No Iterations 1
DILUPBiCGStab:  Solving for k, Initial residual = 0.0223481, Final residual = 0.000557658, No Iterations 1
ExecutionTime = 7.36 s  ClockTime = 10 s

Time = 12

DILUPBiCGStab:  Solving for h, Initial residual = 0.00621819, Final residual = 2.48638e-05, No Iterations 1
GAMG:  Solving for p_rgh, Initial residual = 0.0437984, Final residual = 0.000393349, No Iterations 7
time step continuity errors : sum local = 0.0435337, global = -5.86628e-18, cumulative = -9.34978e-18
rho min/max : 1.1874 1.2077
DILUPBiCGStab:  Solving for omega, Initial residual = 0.000526059, Final residual = 7.15222e-06, No Iterations 1
DILUPBiCGStab:  Solving for k, Initial residual = 0.0293036, Final residual = 0.00046195, No Iterations 1
ExecutionTime = 7.87 s  ClockTime = 10 s

Time = 13

DILUPBiCGStab:  Solving for h, Initial residual = 0.0057591, Final residual = 1.40849e-05, No Iterations 1
GAMG:  Solving for p_rgh, Initial residual = 0.0325466, Final residual = 0.000256111, No Iterations 1
time step continuity errors : sum local = 0.0317515, global = 1.1617e-17, cumulative = 2.26724e-18
rho min/max : 1.18732 1.2076
DILUPBiCGStab:  Solving for omega, Initial residual = 0.000595028, Final residual = 6.38432e-06, No Iterations 1
DILUPBiCGStab:  Solving for k, Initial residual = 0.026161, Final residual = 0.000311851, No Iterations 1
ExecutionTime = 8.27 s  ClockTime = 11 s

Time = 14

DILUPBiCGStab:  Solving for h, Initial residual = 0.0053926, Final residual = 1.45732e-05, No Iterations 1
GAMG:  Solving for p_rgh, Initial residual = 0.0325176, Final residual = 0.000269846, No Iterations 1
time step continuity errors : sum local = 0.0328313, global = -1.5067e-17, cumulative = -1.27998e-17
rho min/max : 1.18722 1.20806
DILUPBiCGStab:  Solving for omega, Initial residual = 0.000419039, Final residual = 6.40988e-06, No Iterations 1
DILUPBiCGStab:  Solving for k, Initial residual = 0.017621, Final residual = 0.000217449, No Iterations 1
ExecutionTime = 8.67 s  ClockTime = 11 s

Time = 15

DILUPBiCGStab:  Solving for h, Initial residual = 0.00524464, Final residual = 2.12231e-05, No Iterations 1
GAMG:  Solving for p_rgh, Initial residual = 0.0308047, Final residual = 0.000222178, No Iterations 2
time step continuity errors : sum local = 0.0252745, global = 2.63956e-17, cumulative = 1.35958e-17
rho min/max : 1.18713 1.20884
DILUPBiCGStab:  Solving for omega, Initial residual = 0.000443217, Final residual = 8.97495e-06, No Iterations 1
DILUPBiCGStab:  Solving for k, Initial residual = 0.0175493, Final residual = 0.000197664, No Iterations 1
ExecutionTime = 9.11 s  ClockTime = 12 s

Time = 16

DILUPBiCGStab:  Solving for h, Initial residual = 0.0052785, Final residual = 2.53077e-05, No Iterations 1
GAMG:  Solving for p_rgh, Initial residual = 0.0257609, Final residual = 0.000192843, No Iterations 2
time step continuity errors : sum local = 0.0216691, global = -1.88221e-17, cumulative = -5.22633e-18
rho min/max : 1.18704 1.20963
DILUPBiCGStab:  Solving for omega, Initial residual = 0.000368273, Final residual = 8.2913e-06, No Iterations 1
DILUPBiCGStab:  Solving for k, Initial residual = 0.0173992, Final residual = 0.000187126, No Iterations 1
ExecutionTime = 9.51 s  ClockTime = 12 s

Time = 17

DILUPBiCGStab:  Solving for h, Initial residual = 0.00511531, Final residual = 2.71905e-05, No Iterations 1
GAMG:  Solving for p_rgh, Initial residual = 0.0212703, Final residual = 0.000166124, No Iterations 15
time step continuity errors : sum local = 0.0172172, global = 1.36386e-17, cumulative = 8.41231e-18
rho min/max : 1.18696 1.2104
DILUPBiCGStab:  Solving for omega, Initial residual = 0.000460096, Final residual = 7.70179e-06, No Iterations 1
DILUPBiCGStab:  Solving for k, Initial residual = 0.0103146, Final residual = 0.000142243, No Iterations 1
ExecutionTime = 10.19 s  ClockTime = 13 s

Time = 18

DILUPBiCGStab:  Solving for h, Initial residual = 0.00505318, Final residual = 2.54321e-05, No Iterations 1
GAMG:  Solving for p_rgh, Initial residual = 0.0193389, Final residual = 0.000145525, No Iterations 3
time step continuity errors : sum local = 0.016264, global = 2.95945e-17, cumulative = 3.80068e-17
rho min/max : 1.18688 1.21118
DILUPBiCGStab:  Solving for omega, Initial residual = 0.000338386, Final residual = 4.96817e-06, No Iterations 1
DILUPBiCGStab:  Solving for k, Initial residual = 0.0104692, Final residual = 0.000177132, No Iterations 1
ExecutionTime = 10.61 s  ClockTime = 13 s

Time = 19

DILUPBiCGStab:  Solving for h, Initial residual = 0.00508438, Final residual = 2.34921e-05, No Iterations 1
GAMG:  Solving for p_rgh, Initial residual = 0.0187575, Final residual = 6.55824e-05, No Iterations 2
time step continuity errors : sum local = 0.0071645, global = 1.92888e-17, cumulative = 5.72956e-17
rho min/max : 1.18681 1.21193
DILUPBiCGStab:  Solving for omega, Initial residual = 0.00031653, Final residual = 4.77758e-06, No Iterations 1
DILUPBiCGStab:  Solving for k, Initial residual = 0.0148154, Final residual = 0.000229208, No Iterations 1
ExecutionTime = 10.96 s  ClockTime = 14 s

Time = 20

DILUPBiCGStab:  Solving for h, Initial residual = 0.00506244, Final residual = 2.19476e-05, No Iterations 1
GAMG:  Solving for p_rgh, Initial residual = 0.0181509, Final residual = 9.12428e-05, No Iterations 2
time step continuity errors : sum local = 0.0101101, global = 5.23824e-19, cumulative = 5.78195e-17
rho min/max : 1.18673 1.21266
DILUPBiCGStab:  Solving for omega, Initial residual = 0.000374243, Final residual = 5.41255e-06, No Iterations 1
DILUPBiCGStab:  Solving for k, Initial residual = 0.0160293, Final residual = 0.000254368, No Iterations 1
ExecutionTime = 11.28 s  ClockTime = 14 s

Time = 21

DILUPBiCGStab:  Solving for h, Initial residual = 0.0050895, Final residual = 1.92296e-05, No Iterations 1
GAMG:  Solving for p_rgh, Initial residual = 0.0180732, Final residual = 7.6556e-05, No Iterations 3
time step continuity errors : sum local = 0.00889193, global = 1.98452e-17, cumulative = 7.76647e-17
rho min/max : 1.18666 1.21338
DILUPBiCGStab:  Solving for omega, Initial residual = 0.000221653, Final residual = 3.89485e-06, No Iterations 1
DILUPBiCGStab:  Solving for k, Initial residual = 0.0134158, Final residual = 0.000233181, No Iterations 1
ExecutionTime = 11.69 s  ClockTime = 14 s

Time = 22

DILUPBiCGStab:  Solving for h, Initial residual = 0.00502267, Final residual = 1.75011e-05, No Iterations 1
GAMG:  Solving for p_rgh, Initial residual = 0.0183786, Final residual = 0.000150199, No Iterations 2
time step continuity errors : sum local = 0.0176974, global = 1.74438e-17, cumulative = 9.51085e-17
rho min/max : 1.18658 1.2141
DILUPBiCGStab:  Solving for omega, Initial residual = 0.000167011, Final residual = 3.09751e-06, No Iterations 1
DILUPBiCGStab:  Solving for k, Initial residual = 0.0113747, Final residual = 0.000199473, No Iterations 1
ExecutionTime = 12.02 s  ClockTime = 15 s

Time = 23

DILUPBiCGStab:  Solving for h, Initial residual = 0.00503093, Final residual = 1.59843e-05, No Iterations 1
GAMG:  Solving for p_rgh, Initial residual = 0.0177853, Final residual = 9.4993e-05, No Iterations 2
time step continuity errors : sum local = 0.0108103, global = -1.51337e-17, cumulative = 7.99748e-17
rho min/max : 1.1865 1.21481
DILUPBiCGStab:  Solving for omega, Initial residual = 0.000156118, Final residual = 2.95264e-06, No Iterations 1
DILUPBiCGStab:  Solving for k, Initial residual = 0.0098831, Final residual = 0.000166309, No Iterations 1
ExecutionTime = 12.29 s  ClockTime = 15 s

Time = 24

DILUPBiCGStab:  Solving for h, Initial residual = 0.0049078, Final residual = 1.44979e-05, No Iterations 1
GAMG:  Solving for p_rgh, Initial residual = 0.0174949, Final residual = 0.000104862, No Iterations 3
time step continuity errors : sum local = 0.0126708, global = -4.85192e-18, cumulative = 7.51229e-17
rho min/max : 1.18643 1.2155
DILUPBiCGStab:  Solving for omega, Initial residual = 0.000121372, Final residual = 2.1263e-06, No Iterations 1
DILUPBiCGStab:  Solving for k, Initial residual = 0.00747004, Final residual = 0.00011056, No Iterations 1
ExecutionTime = 12.64 s  ClockTime = 15 s

Time = 25

DILUPBiCGStab:  Solving for h, Initial residual = 0.00479656, Final residual = 1.54613e-05, No Iterations 1
GAMG:  Solving for p_rgh, Initial residual = 0.0171631, Final residual = 7.50162e-05, No Iterations 2
time step continuity errors : sum local = 0.00836425, global = -9.72658e-18, cumulative = 6.53963e-17
rho min/max : 1.18635 1.21619
DILUPBiCGStab:  Solving for omega, Initial residual = 0.000112021, Final residual = 1.73255e-06, No Iterations 1
DILUPBiCGStab:  Solving for k, Initial residual = 0.00764126, Final residual = 0.000124791, No Iterations 1
ExecutionTime = 13 s  ClockTime = 16 s

Time = 26

DILUPBiCGStab:  Solving for h, Initial residual = 0.00470789, Final residual = 1.54413e-05, No Iterations 1
GAMG:  Solving for p_rgh, Initial residual = 0.0160192, Final residual = 5.39066e-05, No Iterations 2
time step continuity errors : sum local = 0.00605583, global = -1.58104e-17, cumulative = 4.95859e-17
rho min/max : 1.18628 1.21683
DILUPBiCGStab:  Solving for omega, Initial residual = 9.96429e-05, Final residual = 1.61493e-06, No Iterations 1
DILUPBiCGStab:  Solving for k, Initial residual = 0.00779174, Final residual = 0.000139337, No Iterations 1
ExecutionTime = 13.42 s  ClockTime = 16 s

Time = 27

DILUPBiCGStab:  Solving for h, Initial residual = 0.004607, Final residual = 1.56821e-05, No Iterations 1
GAMG:  Solving for p_rgh, Initial residual = 0.0151924, Final residual = 3.57377e-05, No Iterations 2
time step continuity errors : sum local = 0.00386997, global = -2.18877e-18, cumulative = 4.73971e-17
rho min/max : 1.18621 1.21744
DILUPBiCGStab:  Solving for omega, Initial residual = 0.000104426, Final residual = 1.64899e-06, No Iterations 1
DILUPBiCGStab:  Solving for k, Initial residual = 0.00813456, Final residual = 0.000144948, No Iterations 1
ExecutionTime = 13.8 s  ClockTime = 16 s

Time = 28

DILUPBiCGStab:  Solving for h, Initial residual = 0.00450667, Final residual = 1.61666e-05, No Iterations 1
GAMG:  Solving for p_rgh, Initial residual = 0.0143374, Final residual = 3.31413e-05, No Iterations 2
time step continuity errors : sum local = 0.00356711, global = 1.43419e-17, cumulative = 6.17391e-17
rho min/max : 1.18613 1.21799
DILUPBiCGStab:  Solving for omega, Initial residual = 0.000115397, Final residual = 1.76825e-06, No Iterations 1
DILUPBiCGStab:  Solving for k, Initial residual = 0.00844695, Final residual = 0.000145886, No Iterations 1
ExecutionTime = 14.17 s  ClockTime = 17 s

Time = 29

DILUPBiCGStab:  Solving for h, Initial residual = 0.00441798, Final residual = 1.65916e-05, No Iterations 1
GAMG:  Solving for p_rgh, Initial residual = 0.0135272, Final residual = 2.82179e-05, No Iterations 2
time step continuity errors : sum local = 0.0029581, global = 1.62407e-17, cumulative = 7.79797e-17
rho min/max : 1.18606 1.21853
DILUPBiCGStab:  Solving for omega, Initial residual = 0.000200061, Final residual = 2.59474e-06, No Iterations 1
DILUPBiCGStab:  Solving for k, Initial residual = 0.00870253, Final residual = 0.000146938, No Iterations 1
ExecutionTime = 14.53 s  ClockTime = 17 s

Time = 30

DILUPBiCGStab:  Solving for h, Initial residual = 0.0043446, Final residual = 1.70287e-05, No Iterations 1
GAMG:  Solving for p_rgh, Initial residual = 0.0127283, Final residual = 0.000116435, No Iterations 2
time step continuity errors : sum local = 0.0120015, global = 3.17827e-17, cumulative = 1.09762e-16
rho min/max : 1.186 1.21902
DILUPBiCGStab:  Solving for omega, Initial residual = 0.000432116, Final residual = 4.59994e-06, No Iterations 1
DILUPBiCGStab:  Solving for k, Initial residual = 0.00863007, Final residual = 0.000145384, No Iterations 1
ExecutionTime = 14.89 s  ClockTime = 18 s

Time = 31

DILUPBiCGStab:  Solving for h, Initial residual = 0.00432037, Final residual = 1.71296e-05, No Iterations 1
GAMG:  Solving for p_rgh, Initial residual = 0.0120525, Final residual = 4.06248e-05, No Iterations 3
time step continuity errors : sum local = 0.00426247, global = -1.44341e-18, cumulative = 1.08319e-16
rho min/max : 1.18593 1.21947
DILUPBiCGStab:  Solving for omega, Initial residual = 0.000181724, Final residual = 2.18003e-06, No Iterations 1
DILUPBiCGStab:  Solving for k, Initial residual = 0.00808218, Final residual = 0.000128849, No Iterations 1
ExecutionTime = 15.31 s  ClockTime = 18 s

Time = 32

DILUPBiCGStab:  Solving for h, Initial residual = 0.00423069, Final residual = 1.69373e-05, No Iterations 1
GAMG:  Solving for p_rgh, Initial residual = 0.0114324, Final residual = 5.96182e-05, No Iterations 2
time step continuity errors : sum local = 0.0062606, global = -4.6837e-18, cumulative = 1.03635e-16
rho min/max : 1.18586 1.21996
DILUPBiCGStab:  Solving for omega, Initial residual = 8.91137e-05, Final residual = 1.36319e-06, No Iterations 1
DILUPBiCGStab:  Solving for k, Initial residual = 0.00764925, Final residual = 0.000104991, No Iterations 1
ExecutionTime = 15.73 s  ClockTime = 18 s

Time = 33

DILUPBiCGStab:  Solving for h, Initial residual = 0.00420081, Final residual = 1.68455e-05, No Iterations 1
GAMG:  Solving for p_rgh, Initial residual = 0.0109893, Final residual = 6.55498e-05, No Iterations 2
time step continuity errors : sum local = 0.00669916, global = -1.09694e-17, cumulative = 9.26659e-17
rho min/max : 1.1858 1.22043
DILUPBiCGStab:  Solving for omega, Initial residual = 7.75397e-05, Final residual = 1.1894e-06, No Iterations 1
DILUPBiCGStab:  Solving for k, Initial residual = 0.0073485, Final residual = 7.83201e-05, No Iterations 1
ExecutionTime = 16.12 s  ClockTime = 19 s

Time = 34

DILUPBiCGStab:  Solving for h, Initial residual = 0.0041471, Final residual = 1.66671e-05, No Iterations 1
GAMG:  Solving for p_rgh, Initial residual = 0.0106184, Final residual = 6.8494e-05, No Iterations 2
time step continuity errors : sum local = 0.00713357, global = -1.68667e-17, cumulative = 7.57992e-17
rho min/max : 1.18573 1.22084
DILUPBiCGStab:  Solving for omega, Initial residual = 7.04621e-05, Final residual = 1.06615e-06, No Iterations 1
DILUPBiCGStab:  Solving for k, Initial residual = 0.00723029, Final residual = 6.47193e-05, No Iterations 1
ExecutionTime = 16.53 s  ClockTime = 19 s

Time = 35

DILUPBiCGStab:  Solving for h, Initial residual = 0.00411592, Final residual = 1.65087e-05, No Iterations 1
GAMG:  Solving for p_rgh, Initial residual = 0.0103234, Final residual = 5.35568e-05, No Iterations 2
time step continuity errors : sum local = 0.00534846, global = -1.51119e-17, cumulative = 6.06873e-17
rho min/max : 1.18567 1.22129
DILUPBiCGStab:  Solving for omega, Initial residual = 6.4803e-05, Final residual = 9.63028e-07, No Iterations 1
DILUPBiCGStab:  Solving for k, Initial residual = 0.00738579, Final residual = 6.58419e-05, No Iterations 1
ExecutionTime = 16.92 s  ClockTime = 20 s

Time = 36

DILUPBiCGStab:  Solving for h, Initial residual = 0.00405996, Final residual = 1.63718e-05, No Iterations 1
GAMG:  Solving for p_rgh, Initial residual = 0.0101149, Final residual = 7.01592e-05, No Iterations 2
time step continuity errors : sum local = 0.00707668, global = 2.0268e-17, cumulative = 8.09553e-17
rho min/max : 1.1856 1.22166
DILUPBiCGStab:  Solving for omega, Initial residual = 6.31914e-05, Final residual = 9.32607e-07, No Iterations 1
DILUPBiCGStab:  Solving for k, Initial residual = 0.00775086, Final residual = 7.49968e-05, No Iterations 1
ExecutionTime = 17.31 s  ClockTime = 20 s

Time = 37

DILUPBiCGStab:  Solving for h, Initial residual = 0.00403317, Final residual = 1.60624e-05, No Iterations 1
GAMG:  Solving for p_rgh, Initial residual = 0.00978612, Final residual = 3.23644e-05, No Iterations 2
time step continuity errors : sum local = 0.00317805, global = 4.57693e-18, cumulative = 8.55322e-17
rho min/max : 1.18554 1.22208
DILUPBiCGStab:  Solving for omega, Initial residual = 6.43926e-05, Final residual = 9.13512e-07, No Iterations 1
DILUPBiCGStab:  Solving for k, Initial residual = 0.00810657, Final residual = 8.53536e-05, No Iterations 1
ExecutionTime = 17.67 s  ClockTime = 20 s

Time = 38

DILUPBiCGStab:  Solving for h, Initial residual = 0.00397901, Final residual = 1.5866e-05, No Iterations 1
GAMG:  Solving for p_rgh, Initial residual = 0.0094943, Final residual = 2.4874e-05, No Iterations 2
time step continuity errors : sum local = 0.00244773, global = -1.21575e-18, cumulative = 8.43165e-17
rho min/max : 1.18548 1.22243
DILUPBiCGStab:  Solving for omega, Initial residual = 6.20031e-05, Final residual = 8.83492e-07, No Iterations 1
DILUPBiCGStab:  Solving for k, Initial residual = 0.00830663, Final residual = 9.16107e-05, No Iterations 1
ExecutionTime = 18.07 s  ClockTime = 21 s

Time = 39

DILUPBiCGStab:  Solving for h, Initial residual = 0.0039259, Final residual = 1.55414e-05, No Iterations 1
GAMG:  Solving for p_rgh, Initial residual = 0.00926432, Final residual = 3.09203e-05, No Iterations 2
time step continuity errors : sum local = 0.00305271, global = -1.60649e-17, cumulative = 6.82516e-17
rho min/max : 1.18541 1.22282
DILUPBiCGStab:  Solving for omega, Initial residual = 6.20622e-05, Final residual = 9.10991e-07, No Iterations 1
DILUPBiCGStab:  Solving for k, Initial residual = 0.00841273, Final residual = 9.35437e-05, No Iterations 1
ExecutionTime = 18.44 s  ClockTime = 21 s

Time = 40

DILUPBiCGStab:  Solving for h, Initial residual = 0.00388654, Final residual = 1.52996e-05, No Iterations 1
GAMG:  Solving for p_rgh, Initial residual = 0.00903927, Final residual = 3.14967e-05, No Iterations 2
time step continuity errors : sum local = 0.00310931, global = -5.53247e-18, cumulative = 6.27191e-17
rho min/max : 1.18535 1.22318
DILUPBiCGStab:  Solving for omega, Initial residual = 6.11636e-05, Final residual = 9.13321e-07, No Iterations 1
DILUPBiCGStab:  Solving for k, Initial residual = 0.00845687, Final residual = 9.39395e-05, No Iterations 1
ExecutionTime = 18.82 s  ClockTime = 22 s

Time = 41

DILUPBiCGStab:  Solving for h, Initial residual = 0.00385102, Final residual = 1.49905e-05, No Iterations 1
GAMG:  Solving for p_rgh, Initial residual = 0.00886714, Final residual = 2.82326e-05, No Iterations 2
time step continuity errors : sum local = 0.00277414, global = 1.85112e-18, cumulative = 6.45702e-17
rho min/max : 1.18529 1.22354
DILUPBiCGStab:  Solving for omega, Initial residual = 6.14613e-05, Final residual = 9.39883e-07, No Iterations 1
DILUPBiCGStab:  Solving for k, Initial residual = 0.00846353, Final residual = 9.37399e-05, No Iterations 1
ExecutionTime = 19.25 s  ClockTime = 22 s

Time = 42

DILUPBiCGStab:  Solving for h, Initial residual = 0.00381669, Final residual = 1.47053e-05, No Iterations 1
GAMG:  Solving for p_rgh, Initial residual = 0.00871115, Final residual = 2.38838e-05, No Iterations 2
time step continuity errors : sum local = 0.00230622, global = 9.74003e-18, cumulative = 7.43102e-17
rho min/max : 1.18523 1.22392
DILUPBiCGStab:  Solving for omega, Initial residual = 6.10255e-05, Final residual = 9.57951e-07, No Iterations 1
DILUPBiCGStab:  Solving for k, Initial residual = 0.00843794, Final residual = 9.33891e-05, No Iterations 1
ExecutionTime = 19.61 s  ClockTime = 22 s

Time = 43

DILUPBiCGStab:  Solving for h, Initial residual = 0.00378791, Final residual = 1.4609e-05, No Iterations 1
GAMG:  Solving for p_rgh, Initial residual = 0.00848784, Final residual = 5.50999e-05, No Iterations 2
time step continuity errors : sum local = 0.00531467, global = -5.89287e-18, cumulative = 6.84174e-17
rho min/max : 1.18517 1.22425
DILUPBiCGStab:  Solving for omega, Initial residual = 6.31763e-05, Final residual = 1.05194e-06, No Iterations 1
DILUPBiCGStab:  Solving for k, Initial residual = 0.00834737, Final residual = 9.20734e-05, No Iterations 1
ExecutionTime = 20.01 s  ClockTime = 23 s

Time = 44

DILUPBiCGStab:  Solving for h, Initial residual = 0.00377472, Final residual = 1.46493e-05, No Iterations 1
GAMG:  Solving for p_rgh, Initial residual = 0.00833342, Final residual = 4.5619e-05, No Iterations 3
time step continuity errors : sum local = 0.0044526, global = 5.93156e-18, cumulative = 7.43489e-17
rho min/max : 1.18511 1.22457
DILUPBiCGStab:  Solving for omega, Initial residual = 6.13091e-05, Final residual = 9.84263e-07, No Iterations 1
DILUPBiCGStab:  Solving for k, Initial residual = 0.00845385, Final residual = 9.50482e-05, No Iterations 1
ExecutionTime = 20.39 s  ClockTime = 23 s

Time = 45

DILUPBiCGStab:  Solving for h, Initial residual = 0.00371801, Final residual = 1.46481e-05, No Iterations 1
GAMG:  Solving for p_rgh, Initial residual = 0.00815636, Final residual = 2.39376e-05, No Iterations 2
time step continuity errors : sum local = 0.00230179, global = 1.40358e-17, cumulative = 8.83847e-17
rho min/max : 1.18505 1.22489
DILUPBiCGStab:  Solving for omega, Initial residual = 7.32063e-05, Final residual = 1.16434e-06, No Iterations 1
DILUPBiCGStab:  Solving for k, Initial residual = 0.00887068, Final residual = 0.000109708, No Iterations 1
ExecutionTime = 20.7 s  ClockTime = 23 s

Time = 46

DILUPBiCGStab:  Solving for h, Initial residual = 0.00368862, Final residual = 1.45961e-05, No Iterations 1
GAMG:  Solving for p_rgh, Initial residual = 0.00794088, Final residual = 2.12384e-05, No Iterations 2
time step continuity errors : sum local = 0.00203688, global = -2.42996e-18, cumulative = 8.59547e-17
rho min/max : 1.18499 1.22528
DILUPBiCGStab:  Solving for omega, Initial residual = 6.73765e-05, Final residual = 1.15906e-06, No Iterations 1
DILUPBiCGStab:  Solving for k, Initial residual = 0.00920444, Final residual = 0.000122647, No Iterations 1
ExecutionTime = 21.09 s  ClockTime = 24 s

Time = 47

DILUPBiCGStab:  Solving for h, Initial residual = 0.00365026, Final residual = 1.46288e-05, No Iterations 1
GAMG:  Solving for p_rgh, Initial residual = 0.0077637, Final residual = 2.29881e-05, No Iterations 2
time step continuity errors : sum local = 0.00218567, global = -1.39938e-17, cumulative = 7.19609e-17
rho min/max : 1.18493 1.22559
DILUPBiCGStab:  Solving for omega, Initial residual = 6.12554e-05, Final residual = 1.13361e-06, No Iterations 1
DILUPBiCGStab:  Solving for k, Initial residual = 0.00944662, Final residual = 0.000131092, No Iterations 1
ExecutionTime = 21.4 s  ClockTime = 24 s

Time = 48

DILUPBiCGStab:  Solving for h, Initial residual = 0.00361577, Final residual = 1.4606e-05, No Iterations 1
GAMG:  Solving for p_rgh, Initial residual = 0.00757341, Final residual = 2.52767e-05, No Iterations 2
time step continuity errors : sum local = 0.00238292, global = 3.11393e-17, cumulative = 1.031e-16
rho min/max : 1.18487 1.22587
DILUPBiCGStab:  Solving for omega, Initial residual = 5.98319e-05, Final residual = 1.1515e-06, No Iterations 1
DILUPBiCGStab:  Solving for k, Initial residual = 0.00963034, Final residual = 0.000136856, No Iterations 1
ExecutionTime = 21.77 s  ClockTime = 24 s

Time = 49

DILUPBiCGStab:  Solving for h, Initial residual = 0.00358413, Final residual = 1.46427e-05, No Iterations 1
GAMG:  Solving for p_rgh, Initial residual = 0.00738517, Final residual = 2.69203e-05, No Iterations 2
time step continuity errors : sum local = 0.00252111, global = -6.2597e-18, cumulative = 9.68405e-17
rho min/max : 1.18481 1.22615
DILUPBiCGStab:  Solving for omega, Initial residual = 5.94295e-05, Final residual = 1.1749e-06, No Iterations 1
DILUPBiCGStab:  Solving for k, Initial residual = 0.00977812, Final residual = 0.000140742, No Iterations 1
ExecutionTime = 22.11 s  ClockTime = 25 s

Time = 50

DILUPBiCGStab:  Solving for h, Initial residual = 0.00355518, Final residual = 1.47005e-05, No Iterations 1
GAMG:  Solving for p_rgh, Initial residual = 0.00721023, Final residual = 2.80406e-05, No Iterations 2
time step continuity errors : sum local = 0.00260947, global = -2.11215e-17, cumulative = 7.5719e-17
rho min/max : 1.18475 1.22643
DILUPBiCGStab:  Solving for omega, Initial residual = 5.79748e-05, Final residual = 1.19605e-06, No Iterations 1
DILUPBiCGStab:  Solving for k, Initial residual = 0.00990522, Final residual = 0.000143095, No Iterations 1
ExecutionTime = 23.26 s  ClockTime = 26 s

Time = 51

DILUPBiCGStab:  Solving for h, Initial residual = 0.00352761, Final residual = 1.46894e-05, No Iterations 1
GAMG:  Solving for p_rgh, Initial residual = 0.00706276, Final residual = 2.85853e-05, No Iterations 2
time step continuity errors : sum local = 0.00264683, global = 3.66047e-18, cumulative = 7.93795e-17
rho min/max : 1.18469 1.2267
DILUPBiCGStab:  Solving for omega, Initial residual = 5.93778e-05, Final residual = 1.22207e-06, No Iterations 1
DILUPBiCGStab:  Solving for k, Initial residual = 0.0100252, Final residual = 0.000145095, No Iterations 1
ExecutionTime = 23.56 s  ClockTime = 26 s

Time = 52

DILUPBiCGStab:  Solving for h, Initial residual = 0.00350263, Final residual = 1.48013e-05, No Iterations 1
GAMG:  Solving for p_rgh, Initial residual = 0.00695558, Final residual = 2.86951e-05, No Iterations 2
time step continuity errors : sum local = 0.00264212, global = -2.06889e-17, cumulative = 5.86906e-17
rho min/max : 1.18464 1.22699
DILUPBiCGStab:  Solving for omega, Initial residual = 5.86777e-05, Final residual = 1.23866e-06, No Iterations 1
DILUPBiCGStab:  Solving for k, Initial residual = 0.0101423, Final residual = 0.000147077, No Iterations 1
ExecutionTime = 23.85 s  ClockTime = 27 s

Time = 53

DILUPBiCGStab:  Solving for h, Initial residual = 0.00347885, Final residual = 1.48754e-05, No Iterations 1
GAMG:  Solving for p_rgh, Initial residual = 0.00678937, Final residual = 2.84543e-05, No Iterations 2
time step continuity errors : sum local = 0.00260412, global = -6.3319e-18, cumulative = 5.23587e-17
rho min/max : 1.18458 1.22728
DILUPBiCGStab:  Solving for omega, Initial residual = 5.81635e-05, Final residual = 1.25738e-06, No Iterations 1
DILUPBiCGStab:  Solving for k, Initial residual = 0.0102613, Final residual = 0.000148927, No Iterations 1
ExecutionTime = 24.2 s  ClockTime = 27 s

Time = 54

DILUPBiCGStab:  Solving for h, Initial residual = 0.00345757, Final residual = 1.49555e-05, No Iterations 1
GAMG:  Solving for p_rgh, Initial residual = 0.00667172, Final residual = 2.7648e-05, No Iterations 2
time step continuity errors : sum local = 0.00251108, global = -2.12517e-17, cumulative = 3.1107e-17
rho min/max : 1.18453 1.22757
DILUPBiCGStab:  Solving for omega, Initial residual = 5.82431e-05, Final residual = 1.27459e-06, No Iterations 1
DILUPBiCGStab:  Solving for k, Initial residual = 0.0103826, Final residual = 0.000151277, No Iterations 1
ExecutionTime = 24.48 s  ClockTime = 27 s

Time = 55

DILUPBiCGStab:  Solving for h, Initial residual = 0.00343724, Final residual = 1.49577e-05, No Iterations 1
GAMG:  Solving for p_rgh, Initial residual = 0.00657324, Final residual = 2.64227e-05, No Iterations 2
time step continuity errors : sum local = 0.00238378, global = 8.15813e-18, cumulative = 3.92651e-17
rho min/max : 1.18447 1.2279
DILUPBiCGStab:  Solving for omega, Initial residual = 5.74755e-05, Final residual = 1.28533e-06, No Iterations 1
DILUPBiCGStab:  Solving for k, Initial residual = 0.0105019, Final residual = 0.000153675, No Iterations 1
ExecutionTime = 24.73 s  ClockTime = 28 s

Time = 56

DILUPBiCGStab:  Solving for h, Initial residual = 0.00341936, Final residual = 1.50274e-05, No Iterations 1
GAMG:  Solving for p_rgh, Initial residual = 0.00641866, Final residual = 2.49718e-05, No Iterations 2
time step continuity errors : sum local = 0.00223267, global = 9.75773e-19, cumulative = 4.02409e-17
rho min/max : 1.18441 1.22816
DILUPBiCGStab:  Solving for omega, Initial residual = 5.69704e-05, Final residual = 1.29991e-06, No Iterations 1
DILUPBiCGStab:  Solving for k, Initial residual = 0.0106205, Final residual = 0.000156295, No Iterations 1
ExecutionTime = 25.03 s  ClockTime = 28 s

Time = 57

DILUPBiCGStab:  Solving for h, Initial residual = 0.00340343, Final residual = 1.50893e-05, No Iterations 1
GAMG:  Solving for p_rgh, Initial residual = 0.00633501, Final residual = 2.37505e-05, No Iterations 2
time step continuity errors : sum local = 0.00211505, global = -4.05554e-18, cumulative = 3.61853e-17
rho min/max : 1.18436 1.22848
DILUPBiCGStab:  Solving for omega, Initial residual = 5.74649e-05, Final residual = 1.30905e-06, No Iterations 1
DILUPBiCGStab:  Solving for k, Initial residual = 0.0107353, Final residual = 0.000157872, No Iterations 1
ExecutionTime = 25.31 s  ClockTime = 28 s

Time = 58

DILUPBiCGStab:  Solving for h, Initial residual = 0.00338942, Final residual = 1.51934e-05, No Iterations 1
GAMG:  Solving for p_rgh, Initial residual = 0.00628125, Final residual = 2.25305e-05, No Iterations 2
time step continuity errors : sum local = 0.00201506, global = -8.64451e-18, cumulative = 2.75408e-17
rho min/max : 1.18431 1.22874
DILUPBiCGStab:  Solving for omega, Initial residual = 5.62462e-05, Final residual = 1.32003e-06, No Iterations 1
DILUPBiCGStab:  Solving for k, Initial residual = 0.0108452, Final residual = 0.000160575, No Iterations 1
ExecutionTime = 25.59 s  ClockTime = 28 s

Time = 59

DILUPBiCGStab:  Solving for h, Initial residual = 0.00337754, Final residual = 1.52671e-05, No Iterations 1
GAMG:  Solving for p_rgh, Initial residual = 0.00621231, Final residual = 2.13289e-05, No Iterations 2
time step continuity errors : sum local = 0.00189506, global = 1.36706e-17, cumulative = 4.12114e-17
rho min/max : 1.18425 1.2291
DILUPBiCGStab:  Solving for omega, Initial residual = 5.73133e-05, Final residual = 1.34255e-06, No Iterations 1
DILUPBiCGStab:  Solving for k, Initial residual = 0.0109351, Final residual = 0.000161383, No Iterations 1
ExecutionTime = 25.92 s  ClockTime = 29 s

Time = 60

DILUPBiCGStab:  Solving for h, Initial residual = 0.00336743, Final residual = 1.5372e-05, No Iterations 1
GAMG:  Solving for p_rgh, Initial residual = 0.00614086, Final residual = 2.09388e-05, No Iterations 2
time step continuity errors : sum local = 0.00184934, global = -6.35648e-18, cumulative = 3.4855e-17
rho min/max : 1.1842 1.22945
DILUPBiCGStab:  Solving for omega, Initial residual = 5.59385e-05, Final residual = 1.33245e-06, No Iterations 1
DILUPBiCGStab:  Solving for k, Initial residual = 0.0110072, Final residual = 0.000162706, No Iterations 1
ExecutionTime = 26.24 s  ClockTime = 29 s

Time = 61

DILUPBiCGStab:  Solving for h, Initial residual = 0.00335753, Final residual = 1.53511e-05, No Iterations 1
GAMG:  Solving for p_rgh, Initial residual = 0.00605334, Final residual = 2.07158e-05, No Iterations 2
time step continuity errors : sum local = 0.00182353, global = 5.07837e-18, cumulative = 3.99333e-17
rho min/max : 1.18414 1.22977
DILUPBiCGStab:  Solving for omega, Initial residual = 5.50394e-05, Final residual = 1.33567e-06, No Iterations 1
DILUPBiCGStab:  Solving for k, Initial residual = 0.0110742, Final residual = 0.000163872, No Iterations 1
ExecutionTime = 26.55 s  ClockTime = 29 s

Time = 62

DILUPBiCGStab:  Solving for h, Initial residual = 0.00334835, Final residual = 1.54566e-05, No Iterations 1
GAMG:  Solving for p_rgh, Initial residual = 0.00599776, Final residual = 2.01967e-05, No Iterations 2
time step continuity errors : sum local = 0.00176861, global = 1.00363e-17, cumulative = 4.99696e-17
rho min/max : 1.18409 1.23008
DILUPBiCGStab:  Solving for omega, Initial residual = 5.35007e-05, Final residual = 1.32032e-06, No Iterations 1
DILUPBiCGStab:  Solving for k, Initial residual = 0.0111818, Final residual = 0.000166001, No Iterations 1
ExecutionTime = 26.9 s  ClockTime = 30 s

Time = 63

DILUPBiCGStab:  Solving for h, Initial residual = 0.0033394, Final residual = 1.55515e-05, No Iterations 1
GAMG:  Solving for p_rgh, Initial residual = 0.00593051, Final residual = 1.9805e-05, No Iterations 2
time step continuity errors : sum local = 0.00172899, global = -2.58339e-17, cumulative = 2.41357e-17
rho min/max : 1.18404 1.2304
DILUPBiCGStab:  Solving for omega, Initial residual = 5.32189e-05, Final residual = 1.324e-06, No Iterations 1
DILUPBiCGStab:  Solving for k, Initial residual = 0.0113232, Final residual = 0.000170203, No Iterations 1
ExecutionTime = 27.23 s  ClockTime = 30 s

Time = 64

DILUPBiCGStab:  Solving for h, Initial residual = 0.0033292, Final residual = 1.56563e-05, No Iterations 1
GAMG:  Solving for p_rgh, Initial residual = 0.00587899, Final residual = 2.11637e-05, No Iterations 2
time step continuity errors : sum local = 0.00184032, global = -2.41429e-18, cumulative = 2.17214e-17
rho min/max : 1.18398 1.2307
DILUPBiCGStab:  Solving for omega, Initial residual = 5.27935e-05, Final residual = 1.31952e-06, No Iterations 1
DILUPBiCGStab:  Solving for k, Initial residual = 0.0114755, Final residual = 0.000175532, No Iterations 1
ExecutionTime = 27.57 s  ClockTime = 30 s

Time = 65

DILUPBiCGStab:  Solving for h, Initial residual = 0.00331944, Final residual = 1.56823e-05, No Iterations 1
GAMG:  Solving for p_rgh, Initial residual = 0.00576937, Final residual = 2.3503e-05, No Iterations 2
time step continuity errors : sum local = 0.00203623, global = -1.022e-17, cumulative = 1.15014e-17
rho min/max : 1.18393 1.231
DILUPBiCGStab:  Solving for omega, Initial residual = 5.23394e-05, Final residual = 1.32159e-06, No Iterations 1
DILUPBiCGStab:  Solving for k, Initial residual = 0.0116342, Final residual = 0.000180968, No Iterations 1
ExecutionTime = 27.85 s  ClockTime = 31 s

Time = 66

DILUPBiCGStab:  Solving for h, Initial residual = 0.00331075, Final residual = 1.57255e-05, No Iterations 1
GAMG:  Solving for p_rgh, Initial residual = 0.00571704, Final residual = 2.56197e-05, No Iterations 2
time step continuity errors : sum local = 0.00221411, global = 3.3907e-18, cumulative = 1.48921e-17
rho min/max : 1.18388 1.23128
DILUPBiCGStab:  Solving for omega, Initial residual = 5.24932e-05, Final residual = 1.33465e-06, No Iterations 1
DILUPBiCGStab:  Solving for k, Initial residual = 0.0118022, Final residual = 0.000190218, No Iterations 1
ExecutionTime = 28.17 s  ClockTime = 31 s

Time = 67

DILUPBiCGStab:  Solving for h, Initial residual = 0.00330227, Final residual = 1.56711e-05, No Iterations 1
GAMG:  Solving for p_rgh, Initial residual = 0.0056617, Final residual = 2.63057e-05, No Iterations 2
time step continuity errors : sum local = 0.00226073, global = 2.21212e-20, cumulative = 1.49142e-17
rho min/max : 1.18383 1.23158
DILUPBiCGStab:  Solving for omega, Initial residual = 5.11245e-05, Final residual = 1.3332e-06, No Iterations 1
DILUPBiCGStab:  Solving for k, Initial residual = 0.0119665, Final residual = 0.0001974, No Iterations 1
ExecutionTime = 28.51 s  ClockTime = 31 s

Time = 68

DILUPBiCGStab:  Solving for h, Initial residual = 0.00329457, Final residual = 1.57121e-05, No Iterations 1
GAMG:  Solving for p_rgh, Initial residual = 0.00559427, Final residual = 2.68142e-05, No Iterations 2
time step continuity errors : sum local = 0.00230156, global = -1.00977e-17, cumulative = 4.81651e-18
rho min/max : 1.18378 1.23186
DILUPBiCGStab:  Solving for omega, Initial residual = 5.19243e-05, Final residual = 1.3597e-06, No Iterations 1
DILUPBiCGStab:  Solving for k, Initial residual = 0.0121375, Final residual = 0.000206567, No Iterations 1
ExecutionTime = 28.76 s  ClockTime = 32 s

Time = 69

DILUPBiCGStab:  Solving for h, Initial residual = 0.0032873, Final residual = 1.57875e-05, No Iterations 1
GAMG:  Solving for p_rgh, Initial residual = 0.0055438, Final residual = 2.66199e-05, No Iterations 2
time step continuity errors : sum local = 0.00227294, global = -1.18318e-17, cumulative = -7.01528e-18
rho min/max : 1.18373 1.23214
DILUPBiCGStab:  Solving for omega, Initial residual = 5.21187e-05, Final residual = 1.3733e-06, No Iterations 1
DILUPBiCGStab:  Solving for k, Initial residual = 0.0123014, Final residual = 0.000213658, No Iterations 1
ExecutionTime = 29.07 s  ClockTime = 32 s

Time = 70

DILUPBiCGStab:  Solving for h, Initial residual = 0.00327996, Final residual = 1.57288e-05, No Iterations 1
GAMG:  Solving for p_rgh, Initial residual = 0.00551853, Final residual = 2.6578e-05, No Iterations 2
time step continuity errors : sum local = 0.00226275, global = 1.13599e-17, cumulative = 4.34457e-18
rho min/max : 1.18367 1.23239
DILUPBiCGStab:  Solving for omega, Initial residual = 5.17208e-05, Final residual = 1.39188e-06, No Iterations 1
DILUPBiCGStab:  Solving for k, Initial residual = 0.0124753, Final residual = 0.000222816, No Iterations 1
ExecutionTime = 29.37 s  ClockTime = 32 s

Time = 71

DILUPBiCGStab:  Solving for h, Initial residual = 0.00327335, Final residual = 1.58781e-05, No Iterations 1
GAMG:  Solving for p_rgh, Initial residual = 0.00546576, Final residual = 2.61307e-05, No Iterations 2
time step continuity errors : sum local = 0.00221463, global = 1.07085e-17, cumulative = 1.50531e-17
rho min/max : 1.18362 1.23259
DILUPBiCGStab:  Solving for omega, Initial residual = 5.30092e-05, Final residual = 1.40183e-06, No Iterations 1
DILUPBiCGStab:  Solving for k, Initial residual = 0.0126528, Final residual = 0.00023339, No Iterations 1
ExecutionTime = 29.7 s  ClockTime = 33 s

Time = 72

DILUPBiCGStab:  Solving for h, Initial residual = 0.00326732, Final residual = 1.58281e-05, No Iterations 1
GAMG:  Solving for p_rgh, Initial residual = 0.00533473, Final residual = 2.55579e-05, No Iterations 2
time step continuity errors : sum local = 0.00215612, global = -4.96499e-19, cumulative = 1.45566e-17
rho min/max : 1.18357 1.23281
DILUPBiCGStab:  Solving for omega, Initial residual = 5.25365e-05, Final residual = 1.42046e-06, No Iterations 1
DILUPBiCGStab:  Solving for k, Initial residual = 0.0128393, Final residual = 0.00024296, No Iterations 1
ExecutionTime = 30 s  ClockTime = 33 s

Time = 73

DILUPBiCGStab:  Solving for h, Initial residual = 0.00326071, Final residual = 1.57288e-05, No Iterations 1
GAMG:  Solving for p_rgh, Initial residual = 0.00532035, Final residual = 2.48451e-05, No Iterations 2
time step continuity errors : sum local = 0.00208522, global = 1.19946e-17, cumulative = 2.65512e-17
rho min/max : 1.18352 1.23296
DILUPBiCGStab:  Solving for omega, Initial residual = 5.1422e-05, Final residual = 1.42748e-06, No Iterations 1
DILUPBiCGStab:  Solving for k, Initial residual = 0.0130323, Final residual = 0.000255397, No Iterations 1
ExecutionTime = 30.31 s  ClockTime = 33 s

Time = 74

DILUPBiCGStab:  Solving for h, Initial residual = 0.00325569, Final residual = 1.58192e-05, No Iterations 1
GAMG:  Solving for p_rgh, Initial residual = 0.00532636, Final residual = 2.41496e-05, No Iterations 2
time step continuity errors : sum local = 0.00202478, global = -3.64791e-17, cumulative = -9.92795e-18
rho min/max : 1.18347 1.23318
DILUPBiCGStab:  Solving for omega, Initial residual = 5.18013e-05, Final residual = 1.45293e-06, No Iterations 1
DILUPBiCGStab:  Solving for k, Initial residual = 0.0132277, Final residual = 0.000267663, No Iterations 1
ExecutionTime = 30.57 s  ClockTime = 33 s

Time = 75

DILUPBiCGStab:  Solving for h, Initial residual = 0.00325052, Final residual = 1.58211e-05, No Iterations 1
GAMG:  Solving for p_rgh, Initial residual = 0.00526713, Final residual = 2.34216e-05, No Iterations 2
time step continuity errors : sum local = 0.0019683, global = 1.69074e-17, cumulative = 6.97943e-18
rho min/max : 1.18342 1.23339
DILUPBiCGStab:  Solving for omega, Initial residual = 5.22351e-05, Final residual = 1.47282e-06, No Iterations 1
DILUPBiCGStab:  Solving for k, Initial residual = 0.0134429, Final residual = 0.000280577, No Iterations 1
ExecutionTime = 30.84 s  ClockTime = 34 s

Time = 76

DILUPBiCGStab:  Solving for h, Initial residual = 0.00324504, Final residual = 1.58279e-05, No Iterations 1
GAMG:  Solving for p_rgh, Initial residual = 0.00522138, Final residual = 2.22966e-05, No Iterations 2
time step continuity errors : sum local = 0.0018696, global = 7.979e-18, cumulative = 1.49584e-17
rho min/max : 1.18337 1.2336
DILUPBiCGStab:  Solving for omega, Initial residual = 5.17081e-05, Final residual = 1.48975e-06, No Iterations 1
DILUPBiCGStab:  Solving for k, Initial residual = 0.0136639, Final residual = 0.000293289, No Iterations 1
ExecutionTime = 31.08 s  ClockTime = 34 s

Time = 77

DILUPBiCGStab:  Solving for h, Initial residual = 0.00324112, Final residual = 1.5821e-05, No Iterations 1
GAMG:  Solving for p_rgh, Initial residual = 0.00512343, Final residual = 2.11049e-05, No Iterations 2
time step continuity errors : sum local = 0.00176667, global = 3.08865e-17, cumulative = 4.58449e-17
rho min/max : 1.18332 1.23381
DILUPBiCGStab:  Solving for omega, Initial residual = 5.28553e-05, Final residual = 1.52535e-06, No Iterations 1
DILUPBiCGStab:  Solving for k, Initial residual = 0.0139028, Final residual = 0.000308161, No Iterations 1
ExecutionTime = 31.38 s  ClockTime = 34 s

Time = 78

DILUPBiCGStab:  Solving for h, Initial residual = 0.00323635, Final residual = 1.58401e-05, No Iterations 1
GAMG:  Solving for p_rgh, Initial residual = 0.00510507, Final residual = 1.99498e-05, No Iterations 2
time step continuity errors : sum local = 0.00166445, global = 5.4031e-18, cumulative = 5.1248e-17
rho min/max : 1.18327 1.23402
DILUPBiCGStab:  Solving for omega, Initial residual = 5.34459e-05, Final residual = 1.53968e-06, No Iterations 1
DILUPBiCGStab:  Solving for k, Initial residual = 0.014184, Final residual = 0.000323383, No Iterations 1
ExecutionTime = 31.68 s  ClockTime = 34 s

Time = 79

DILUPBiCGStab:  Solving for h, Initial residual = 0.00323183, Final residual = 1.56466e-05, No Iterations 1
GAMG:  Solving for p_rgh, Initial residual = 0.00505576, Final residual = 1.9233e-05, No Iterations 2
time step continuity errors : sum local = 0.00161144, global = -9.82674e-18, cumulative = 4.14213e-17
rho min/max : 1.18323 1.23422
DILUPBiCGStab:  Solving for omega, Initial residual = 5.30727e-05, Final residual = 1.56123e-06, No Iterations 1
DILUPBiCGStab:  Solving for k, Initial residual = 0.0145243, Final residual = 0.000341266, No Iterations 1
ExecutionTime = 31.97 s  ClockTime = 35 s

Time = 80

DILUPBiCGStab:  Solving for h, Initial residual = 0.00322816, Final residual = 1.57262e-05, No Iterations 1
GAMG:  Solving for p_rgh, Initial residual = 0.00504626, Final residual = 1.94099e-05, No Iterations 2
time step continuity errors : sum local = 0.00160355, global = -1.26921e-17, cumulative = 2.87292e-17
rho min/max : 1.18318 1.23441
DILUPBiCGStab:  Solving for omega, Initial residual = 5.33015e-05, Final residual = 1.58147e-06, No Iterations 1
DILUPBiCGStab:  Solving for k, Initial residual = 0.0149479, Final residual = 0.000361126, No Iterations 1
ExecutionTime = 32.21 s  ClockTime = 35 s

Time = 81

DILUPBiCGStab:  Solving for h, Initial residual = 0.00322685, Final residual = 1.57978e-05, No Iterations 1
GAMG:  Solving for p_rgh, Initial residual = 0.00499068, Final residual = 1.95246e-05, No Iterations 2
time step continuity errors : sum local = 0.00163398, global = -1.59576e-17, cumulative = 1.27716e-17
rho min/max : 1.18313 1.23458
DILUPBiCGStab:  Solving for omega, Initial residual = 5.41507e-05, Final residual = 1.58934e-06, No Iterations 1
DILUPBiCGStab:  Solving for k, Initial residual = 0.0155097, Final residual = 0.000384875, No Iterations 1
ExecutionTime = 32.49 s  ClockTime = 35 s

Time = 82

DILUPBiCGStab:  Solving for h, Initial residual = 0.00322398, Final residual = 1.58137e-05, No Iterations 1
GAMG:  Solving for p_rgh, Initial residual = 0.00495509, Final residual = 2.041e-05, No Iterations 2
time step continuity errors : sum local = 0.00167013, global = 2.92123e-18, cumulative = 1.56929e-17
rho min/max : 1.18308 1.23476
DILUPBiCGStab:  Solving for omega, Initial residual = 5.37818e-05, Final residual = 1.6087e-06, No Iterations 1
DILUPBiCGStab:  Solving for k, Initial residual = 0.0161382, Final residual = 0.000405773, No Iterations 1
ExecutionTime = 32.77 s  ClockTime = 36 s

Time = 83

DILUPBiCGStab:  Solving for h, Initial residual = 0.00321865, Final residual = 1.57758e-05, No Iterations 1
GAMG:  Solving for p_rgh, Initial residual = 0.00497064, Final residual = 1.79502e-05, No Iterations 2
time step continuity errors : sum local = 0.0014871, global = -4.06017e-19, cumulative = 1.52869e-17
rho min/max : 1.18303 1.23495
DILUPBiCGStab:  Solving for omega, Initial residual = 5.42126e-05, Final residual = 1.61029e-06, No Iterations 1
DILUPBiCGStab:  Solving for k, Initial residual = 0.0167725, Final residual = 0.000426417, No Iterations 1
ExecutionTime = 33 s  ClockTime = 36 s

Time = 84

DILUPBiCGStab:  Solving for h, Initial residual = 0.00321108, Final residual = 1.56587e-05, No Iterations 1
GAMG:  Solving for p_rgh, Initial residual = 0.00491857, Final residual = 1.7356e-05, No Iterations 2
time step continuity errors : sum local = 0.00142094, global = -1.21408e-17, cumulative = 3.14606e-18
rho min/max : 1.18298 1.23515
DILUPBiCGStab:  Solving for omega, Initial residual = 5.40074e-05, Final residual = 1.63624e-06, No Iterations 1
DILUPBiCGStab:  Solving for k, Initial residual = 0.0171686, Final residual = 0.000442819, No Iterations 1
ExecutionTime = 33.26 s  ClockTime = 36 s

Time = 85

DILUPBiCGStab:  Solving for h, Initial residual = 0.00320322, Final residual = 1.56394e-05, No Iterations 1
GAMG:  Solving for p_rgh, Initial residual = 0.00494975, Final residual = 1.89847e-05, No Iterations 2
time step continuity errors : sum local = 0.00155652, global = -3.97568e-19, cumulative = 2.74849e-18
rho min/max : 1.18293 1.23534
DILUPBiCGStab:  Solving for omega, Initial residual = 5.52099e-05, Final residual = 1.66016e-06, No Iterations 1
DILUPBiCGStab:  Solving for k, Initial residual = 0.0173663, Final residual = 0.000449988, No Iterations 1
ExecutionTime = 33.56 s  ClockTime = 36 s

Time = 86

DILUPBiCGStab:  Solving for h, Initial residual = 0.00319489, Final residual = 1.55776e-05, No Iterations 1
GAMG:  Solving for p_rgh, Initial residual = 0.00489552, Final residual = 2.08082e-05, No Iterations 2
time step continuity errors : sum local = 0.00169315, global = 1.28292e-17, cumulative = 1.55777e-17
rho min/max : 1.18289 1.23555
DILUPBiCGStab:  Solving for omega, Initial residual = 5.53323e-05, Final residual = 1.69445e-06, No Iterations 1
DILUPBiCGStab:  Solving for k, Initial residual = 0.0174513, Final residual = 0.000458676, No Iterations 1
ExecutionTime = 33.83 s  ClockTime = 37 s

Time = 87

DILUPBiCGStab:  Solving for h, Initial residual = 0.0031897, Final residual = 1.56758e-05, No Iterations 1
GAMG:  Solving for p_rgh, Initial residual = 0.00484902, Final residual = 2.24762e-05, No Iterations 2
time step continuity errors : sum local = 0.00182173, global = -1.04037e-17, cumulative = 5.174e-18
rho min/max : 1.18284 1.23575
DILUPBiCGStab:  Solving for omega, Initial residual = 5.54329e-05, Final residual = 1.73215e-06, No Iterations 1
DILUPBiCGStab:  Solving for k, Initial residual = 0.0174832, Final residual = 0.000469044, No Iterations 1
ExecutionTime = 34.17 s  ClockTime = 37 s

Time = 88

DILUPBiCGStab:  Solving for h, Initial residual = 0.00318309, Final residual = 1.57047e-05, No Iterations 1
GAMG:  Solving for p_rgh, Initial residual = 0.00482677, Final residual = 2.37599e-05, No Iterations 2
time step continuity errors : sum local = 0.00192026, global = -4.61413e-18, cumulative = 5.59869e-19
rho min/max : 1.18279 1.23594
DILUPBiCGStab:  Solving for omega, Initial residual = 5.67497e-05, Final residual = 1.77388e-06, No Iterations 1
DILUPBiCGStab:  Solving for k, Initial residual = 0.0174498, Final residual = 0.000473789, No Iterations 1
ExecutionTime = 34.48 s  ClockTime = 37 s

Time = 89

DILUPBiCGStab:  Solving for h, Initial residual = 0.00317601, Final residual = 1.56462e-05, No Iterations 1
GAMG:  Solving for p_rgh, Initial residual = 0.00480734, Final residual = 2.36449e-05, No Iterations 2
time step continuity errors : sum local = 0.00190192, global = -4.29826e-18, cumulative = -3.7384e-18
rho min/max : 1.18275 1.23613
DILUPBiCGStab:  Solving for omega, Initial residual = 5.74055e-05, Final residual = 1.81369e-06, No Iterations 1
DILUPBiCGStab:  Solving for k, Initial residual = 0.0173644, Final residual = 0.000475631, No Iterations 1
ExecutionTime = 34.8 s  ClockTime = 38 s

Time = 90

DILUPBiCGStab:  Solving for h, Initial residual = 0.00317019, Final residual = 1.56875e-05, No Iterations 1
GAMG:  Solving for p_rgh, Initial residual = 0.00482119, Final residual = 2.38082e-05, No Iterations 2
time step continuity errors : sum local = 0.0019133, global = 1.49626e-18, cumulative = -2.24214e-18
rho min/max : 1.1827 1.2363
DILUPBiCGStab:  Solving for omega, Initial residual = 5.83429e-05, Final residual = 1.84744e-06, No Iterations 1
DILUPBiCGStab:  Solving for k, Initial residual = 0.0172539, Final residual = 0.000482262, No Iterations 1
ExecutionTime = 35.13 s  ClockTime = 38 s

Time = 91

DILUPBiCGStab:  Solving for h, Initial residual = 0.00316502, Final residual = 1.57242e-05, No Iterations 1
GAMG:  Solving for p_rgh, Initial residual = 0.00477632, Final residual = 2.33126e-05, No Iterations 2
time step continuity errors : sum local = 0.00186501, global = 6.77064e-18, cumulative = 4.5285e-18
rho min/max : 1.18265 1.23655
DILUPBiCGStab:  Solving for omega, Initial residual = 5.80438e-05, Final residual = 1.87803e-06, No Iterations 1
DILUPBiCGStab:  Solving for k, Initial residual = 0.0171064, Final residual = 0.000481985, No Iterations 1
ExecutionTime = 35.46 s  ClockTime = 38 s

Time = 92

DILUPBiCGStab:  Solving for h, Initial residual = 0.00315975, Final residual = 1.59616e-05, No Iterations 1
GAMG:  Solving for p_rgh, Initial residual = 0.00472984, Final residual = 2.32576e-05, No Iterations 2
time step continuity errors : sum local = 0.00185297, global = 1.64757e-17, cumulative = 2.10042e-17
rho min/max : 1.18261 1.2368
DILUPBiCGStab:  Solving for omega, Initial residual = 5.80655e-05, Final residual = 1.90083e-06, No Iterations 1
DILUPBiCGStab:  Solving for k, Initial residual = 0.0169247, Final residual = 0.000482383, No Iterations 1
ExecutionTime = 35.76 s  ClockTime = 39 s

Time = 93

DILUPBiCGStab:  Solving for h, Initial residual = 0.00315322, Final residual = 1.58098e-05, No Iterations 1
GAMG:  Solving for p_rgh, Initial residual = 0.00466805, Final residual = 2.26665e-05, No Iterations 2
time step continuity errors : sum local = 0.00180118, global = 1.27292e-17, cumulative = 3.37335e-17
rho min/max : 1.18256 1.23706
DILUPBiCGStab:  Solving for omega, Initial residual = 5.73915e-05, Final residual = 1.91982e-06, No Iterations 1
DILUPBiCGStab:  Solving for k, Initial residual = 0.0167477, Final residual = 0.000483788, No Iterations 1
ExecutionTime = 36.06 s  ClockTime = 39 s

Time = 94

DILUPBiCGStab:  Solving for h, Initial residual = 0.00314674, Final residual = 1.59778e-05, No Iterations 1
GAMG:  Solving for p_rgh, Initial residual = 0.00467399, Final residual = 2.24903e-05, No Iterations 2
time step continuity errors : sum local = 0.00178037, global = -2.10582e-18, cumulative = 3.16276e-17
rho min/max : 1.18251 1.23731
DILUPBiCGStab:  Solving for omega, Initial residual = 5.80182e-05, Final residual = 1.94503e-06, No Iterations 1
DILUPBiCGStab:  Solving for k, Initial residual = 0.016554, Final residual = 0.000487494, No Iterations 1
ExecutionTime = 36.33 s  ClockTime = 39 s

Time = 95

DILUPBiCGStab:  Solving for h, Initial residual = 0.00314063, Final residual = 1.59197e-05, No Iterations 1
GAMG:  Solving for p_rgh, Initial residual = 0.00463026, Final residual = 2.21069e-05, No Iterations 2
time step continuity errors : sum local = 0.00174495, global = -9.17908e-18, cumulative = 2.24485e-17
rho min/max : 1.18247 1.23754
DILUPBiCGStab:  Solving for omega, Initial residual = 5.84436e-05, Final residual = 1.97004e-06, No Iterations 1
DILUPBiCGStab:  Solving for k, Initial residual = 0.0163639, Final residual = 0.000487509, No Iterations 1
ExecutionTime = 36.55 s  ClockTime = 39 s

Time = 96

DILUPBiCGStab:  Solving for h, Initial residual = 0.00313463, Final residual = 1.60264e-05, No Iterations 1
GAMG:  Solving for p_rgh, Initial residual = 0.00457351, Final residual = 2.18321e-05, No Iterations 2
time step continuity errors : sum local = 0.00171849, global = -1.50621e-17, cumulative = 7.38645e-18
rho min/max : 1.18242 1.23777
DILUPBiCGStab:  Solving for omega, Initial residual = 5.88544e-05, Final residual = 1.99224e-06, No Iterations 1
DILUPBiCGStab:  Solving for k, Initial residual = 0.0162073, Final residual = 0.000489095, No Iterations 1
ExecutionTime = 36.82 s  ClockTime = 40 s

Time = 97

DILUPBiCGStab:  Solving for h, Initial residual = 0.00312906, Final residual = 1.60215e-05, No Iterations 1
GAMG:  Solving for p_rgh, Initial residual = 0.00454182, Final residual = 2.16517e-05, No Iterations 2
time step continuity errors : sum local = 0.00169149, global = 4.84086e-18, cumulative = 1.22273e-17
rho min/max : 1.18238 1.238
DILUPBiCGStab:  Solving for omega, Initial residual = 5.86722e-05, Final residual = 2.01556e-06, No Iterations 1
DILUPBiCGStab:  Solving for k, Initial residual = 0.0160185, Final residual = 0.000491968, No Iterations 1
ExecutionTime = 37.15 s  ClockTime = 40 s

Time = 98

DILUPBiCGStab:  Solving for h, Initial residual = 0.00312336, Final residual = 1.61657e-05, No Iterations 1
GAMG:  Solving for p_rgh, Initial residual = 0.00446389, Final residual = 2.14622e-05, No Iterations 2
time step continuity errors : sum local = 0.00167586, global = -1.56452e-17, cumulative = -3.41794e-18
rho min/max : 1.18233 1.23822
DILUPBiCGStab:  Solving for omega, Initial residual = 5.84796e-05, Final residual = 2.03075e-06, No Iterations 1
DILUPBiCGStab:  Solving for k, Initial residual = 0.0158678, Final residual = 0.000493577, No Iterations 1
ExecutionTime = 37.39 s  ClockTime = 40 s

Time = 99

DILUPBiCGStab:  Solving for h, Initial residual = 0.00311636, Final residual = 1.60538e-05, No Iterations 1
GAMG:  Solving for p_rgh, Initial residual = 0.00446744, Final residual = 2.13723e-05, No Iterations 2
time step continuity errors : sum local = 0.0016666, global = -1.64054e-17, cumulative = -1.98233e-17
rho min/max : 1.18229 1.23844
DILUPBiCGStab:  Solving for omega, Initial residual = 5.95753e-05, Final residual = 2.08443e-06, No Iterations 1
DILUPBiCGStab:  Solving for k, Initial residual = 0.0156777, Final residual = 0.000496838, No Iterations 1
ExecutionTime = 37.68 s  ClockTime = 41 s

Time = 100

DILUPBiCGStab:  Solving for h, Initial residual = 0.00310918, Final residual = 1.61417e-05, No Iterations 1
GAMG:  Solving for p_rgh, Initial residual = 0.00446039, Final residual = 2.12199e-05, No Iterations 2
time step continuity errors : sum local = 0.00165989, global = 2.28586e-19, cumulative = -1.95947e-17
rho min/max : 1.18224 1.23864
DILUPBiCGStab:  Solving for omega, Initial residual = 5.99394e-05, Final residual = 2.11073e-06, No Iterations 1
DILUPBiCGStab:  Solving for k, Initial residual = 0.0155239, Final residual = 0.00049983, No Iterations 1
ExecutionTime = 38.78 s  ClockTime = 42 s

Time = 101

DILUPBiCGStab:  Solving for h, Initial residual = 0.0031024, Final residual = 1.60975e-05, No Iterations 1
GAMG:  Solving for p_rgh, Initial residual = 0.00439163, Final residual = 2.09391e-05, No Iterations 2
time step continuity errors : sum local = 0.00163427, global = -1.76509e-17, cumulative = -3.72456e-17
rho min/max : 1.1822 1.23884
DILUPBiCGStab:  Solving for omega, Initial residual = 5.96003e-05, Final residual = 2.13675e-06, No Iterations 1
DILUPBiCGStab:  Solving for k, Initial residual = 0.0153599, Final residual = 0.000499289, No Iterations 1
ExecutionTime = 39.03 s  ClockTime = 42 s

Time = 102

DILUPBiCGStab:  Solving for h, Initial residual = 0.00309507, Final residual = 1.61547e-05, No Iterations 1
GAMG:  Solving for p_rgh, Initial residual = 0.00433833, Final residual = 2.08773e-05, No Iterations 2
time step continuity errors : sum local = 0.00162518, global = 7.63674e-18, cumulative = -2.96089e-17
rho min/max : 1.18215 1.23903
DILUPBiCGStab:  Solving for omega, Initial residual = 6.03519e-05, Final residual = 2.14676e-06, No Iterations 1
DILUPBiCGStab:  Solving for k, Initial residual = 0.0152032, Final residual = 0.000501904, No Iterations 1
ExecutionTime = 39.32 s  ClockTime = 42 s

Time = 103

DILUPBiCGStab:  Solving for h, Initial residual = 0.00308797, Final residual = 1.62085e-05, No Iterations 1
GAMG:  Solving for p_rgh, Initial residual = 0.00427256, Final residual = 2.08704e-05, No Iterations 2
time step continuity errors : sum local = 0.00161913, global = -3.10619e-17, cumulative = -6.06708e-17
rho min/max : 1.18211 1.23922
DILUPBiCGStab:  Solving for omega, Initial residual = 6.06336e-05, Final residual = 2.18289e-06, No Iterations 1
DILUPBiCGStab:  Solving for k, Initial residual = 0.0150291, Final residual = 0.000503394, No Iterations 1
ExecutionTime = 39.58 s  ClockTime = 42 s

Time = 104

DILUPBiCGStab:  Solving for h, Initial residual = 0.00307854, Final residual = 1.61615e-05, No Iterations 1
GAMG:  Solving for p_rgh, Initial residual = 0.00421537, Final residual = 2.09328e-05, No Iterations 2
time step continuity errors : sum local = 0.00161981, global = 1.82629e-17, cumulative = -4.24079e-17
rho min/max : 1.18206 1.23939
DILUPBiCGStab:  Solving for omega, Initial residual = 6.12827e-05, Final residual = 2.20997e-06, No Iterations 1
DILUPBiCGStab:  Solving for k, Initial residual = 0.0148653, Final residual = 0.000507375, No Iterations 1
ExecutionTime = 39.84 s  ClockTime = 43 s

Time = 105

DILUPBiCGStab:  Solving for h, Initial residual = 0.00307088, Final residual = 1.61429e-05, No Iterations 1
GAMG:  Solving for p_rgh, Initial residual = 0.00420367, Final residual = 2.1183e-05, No Iterations 2
time step continuity errors : sum local = 0.00163974, global = -8.40791e-18, cumulative = -5.08158e-17
rho min/max : 1.18202 1.23957
DILUPBiCGStab:  Solving for omega, Initial residual = 6.16753e-05, Final residual = 2.2466e-06, No Iterations 1
DILUPBiCGStab:  Solving for k, Initial residual = 0.0147167, Final residual = 0.000510123, No Iterations 1
ExecutionTime = 40.14 s  ClockTime = 43 s

Time = 106

DILUPBiCGStab:  Solving for h, Initial residual = 0.00306254, Final residual = 1.61989e-05, No Iterations 1
GAMG:  Solving for p_rgh, Initial residual = 0.00416231, Final residual = 2.11356e-05, No Iterations 2
time step continuity errors : sum local = 0.00162666, global = 6.7648e-18, cumulative = -4.4051e-17
rho min/max : 1.18198 1.23973
DILUPBiCGStab:  Solving for omega, Initial residual = 6.19855e-05, Final residual = 2.25291e-06, No Iterations 1
DILUPBiCGStab:  Solving for k, Initial residual = 0.0146002, Final residual = 0.000512537, No Iterations 1
ExecutionTime = 40.42 s  ClockTime = 43 s

Time = 107

DILUPBiCGStab:  Solving for h, Initial residual = 0.0030531, Final residual = 1.61747e-05, No Iterations 1
GAMG:  Solving for p_rgh, Initial residual = 0.00412223, Final residual = 2.12134e-05, No Iterations 2
time step continuity errors : sum local = 0.00163377, global = -5.70298e-18, cumulative = -4.9754e-17
rho min/max : 1.18193 1.2399
DILUPBiCGStab:  Solving for omega, Initial residual = 6.19396e-05, Final residual = 2.29991e-06, No Iterations 1
DILUPBiCGStab:  Solving for k, Initial residual = 0.0144973, Final residual = 0.000515141, No Iterations 1
ExecutionTime = 40.74 s  ClockTime = 44 s

Time = 108

DILUPBiCGStab:  Solving for h, Initial residual = 0.00304426, Final residual = 1.61866e-05, No Iterations 1
GAMG:  Solving for p_rgh, Initial residual = 0.00409905, Final residual = 2.15573e-05, No Iterations 2
time step continuity errors : sum local = 0.00165531, global = 2.15928e-17, cumulative = -2.81612e-17
rho min/max : 1.18189 1.24006
DILUPBiCGStab:  Solving for omega, Initial residual = 6.29182e-05, Final residual = 2.32465e-06, No Iterations 1
DILUPBiCGStab:  Solving for k, Initial residual = 0.0144213, Final residual = 0.00051946, No Iterations 1
ExecutionTime = 41 s  ClockTime = 44 s

Time = 109

DILUPBiCGStab:  Solving for h, Initial residual = 0.00303373, Final residual = 1.61375e-05, No Iterations 1
GAMG:  Solving for p_rgh, Initial residual = 0.00411115, Final residual = 2.15791e-05, No Iterations 2
time step continuity errors : sum local = 0.00165297, global = 6.06983e-18, cumulative = -2.20913e-17
rho min/max : 1.18185 1.24022
DILUPBiCGStab:  Solving for omega, Initial residual = 6.2602e-05, Final residual = 2.36941e-06, No Iterations 1
DILUPBiCGStab:  Solving for k, Initial residual = 0.0143746, Final residual = 0.000524469, No Iterations 1
ExecutionTime = 41.31 s  ClockTime = 44 s

Time = 110

DILUPBiCGStab:  Solving for h, Initial residual = 0.00302364, Final residual = 1.61585e-05, No Iterations 1
GAMG:  Solving for p_rgh, Initial residual = 0.00411007, Final residual = 2.19372e-05, No Iterations 2
time step continuity errors : sum local = 0.00167597, global = -1.58585e-17, cumulative = -3.79498e-17
rho min/max : 1.18181 1.24038
DILUPBiCGStab:  Solving for omega, Initial residual = 6.38864e-05, Final residual = 2.38129e-06, No Iterations 1
DILUPBiCGStab:  Solving for k, Initial residual = 0.0143786, Final residual = 0.00053262, No Iterations 1
ExecutionTime = 41.59 s  ClockTime = 44 s

Time = 111

DILUPBiCGStab:  Solving for h, Initial residual = 0.00301306, Final residual = 1.60602e-05, No Iterations 1
GAMG:  Solving for p_rgh, Initial residual = 0.00404278, Final residual = 2.18797e-05, No Iterations 2
time step continuity errors : sum local = 0.00167027, global = -2.45484e-17, cumulative = -6.24982e-17
rho min/max : 1.18176 1.24055
DILUPBiCGStab:  Solving for omega, Initial residual = 6.35863e-05, Final residual = 2.43738e-06, No Iterations 1
DILUPBiCGStab:  Solving for k, Initial residual = 0.0143945, Final residual = 0.000540615, No Iterations 1
ExecutionTime = 41.85 s  ClockTime = 45 s

Time = 112

DILUPBiCGStab:  Solving for h, Initial residual = 0.00300388, Final residual = 1.61775e-05, No Iterations 1
GAMG:  Solving for p_rgh, Initial residual = 0.00397791, Final residual = 2.19759e-05, No Iterations 2
time step continuity errors : sum local = 0.00167671, global = 8.183e-18, cumulative = -5.43152e-17
rho min/max : 1.18172 1.24072
DILUPBiCGStab:  Solving for omega, Initial residual = 6.5775e-05, Final residual = 2.44225e-06, No Iterations 1
DILUPBiCGStab:  Solving for k, Initial residual = 0.0144526, Final residual = 0.000548788, No Iterations 1
ExecutionTime = 42.12 s  ClockTime = 45 s

Time = 113

DILUPBiCGStab:  Solving for h, Initial residual = 0.00299224, Final residual = 1.6037e-05, No Iterations 1
GAMG:  Solving for p_rgh, Initial residual = 0.00391178, Final residual = 2.20339e-05, No Iterations 2
time step continuity errors : sum local = 0.00167514, global = 2.82999e-18, cumulative = -5.14852e-17
rho min/max : 1.18168 1.24089
DILUPBiCGStab:  Solving for omega, Initial residual = 6.46674e-05, Final residual = 2.47848e-06, No Iterations 1
DILUPBiCGStab:  Solving for k, Initial residual = 0.0145117, Final residual = 0.00055477, No Iterations 1
ExecutionTime = 42.41 s  ClockTime = 45 s

Time = 114

DILUPBiCGStab:  Solving for h, Initial residual = 0.00298275, Final residual = 1.60578e-05, No Iterations 1
GAMG:  Solving for p_rgh, Initial residual = 0.0039015, Final residual = 2.19018e-05, No Iterations 2
time step continuity errors : sum local = 0.00166343, global = 4.92689e-18, cumulative = -4.65583e-17
rho min/max : 1.18164 1.24105
DILUPBiCGStab:  Solving for omega, Initial residual = 6.45099e-05, Final residual = 2.47648e-06, No Iterations 1
DILUPBiCGStab:  Solving for k, Initial residual = 0.0146312, Final residual = 0.000566383, No Iterations 1
ExecutionTime = 42.65 s  ClockTime = 46 s

Time = 115

DILUPBiCGStab:  Solving for h, Initial residual = 0.00297213, Final residual = 1.6022e-05, No Iterations 1
GAMG:  Solving for p_rgh, Initial residual = 0.0038458, Final residual = 2.17523e-05, No Iterations 2
time step continuity errors : sum local = 0.00164824, global = -4.64424e-18, cumulative = -5.12026e-17
rho min/max : 1.1816 1.24122
DILUPBiCGStab:  Solving for omega, Initial residual = 6.39826e-05, Final residual = 2.51464e-06, No Iterations 1
DILUPBiCGStab:  Solving for k, Initial residual = 0.0147454, Final residual = 0.000575451, No Iterations 1
ExecutionTime = 42.9 s  ClockTime = 46 s

Time = 116

DILUPBiCGStab:  Solving for h, Initial residual = 0.00295973, Final residual = 1.59954e-05, No Iterations 1
GAMG:  Solving for p_rgh, Initial residual = 0.00384392, Final residual = 2.1518e-05, No Iterations 2
time step continuity errors : sum local = 0.00162375, global = 1.27394e-17, cumulative = -3.84632e-17
rho min/max : 1.18156 1.24138
DILUPBiCGStab:  Solving for omega, Initial residual = 6.50499e-05, Final residual = 2.51658e-06, No Iterations 1
DILUPBiCGStab:  Solving for k, Initial residual = 0.0148883, Final residual = 0.000586994, No Iterations 1
ExecutionTime = 43.15 s  ClockTime = 46 s

Time = 117

DILUPBiCGStab:  Solving for h, Initial residual = 0.00294797, Final residual = 1.59027e-05, No Iterations 1
GAMG:  Solving for p_rgh, Initial residual = 0.00384224, Final residual = 2.12351e-05, No Iterations 2
time step continuity errors : sum local = 0.00159952, global = -5.10876e-18, cumulative = -4.3572e-17
rho min/max : 1.18152 1.24154
DILUPBiCGStab:  Solving for omega, Initial residual = 6.46039e-05, Final residual = 2.54228e-06, No Iterations 1
DILUPBiCGStab:  Solving for k, Initial residual = 0.015047, Final residual = 0.000594932, No Iterations 1
ExecutionTime = 43.5 s  ClockTime = 46 s

Time = 118

DILUPBiCGStab:  Solving for h, Initial residual = 0.00293644, Final residual = 1.58769e-05, No Iterations 1
GAMG:  Solving for p_rgh, Initial residual = 0.00380851, Final residual = 2.08979e-05, No Iterations 2
time step continuity errors : sum local = 0.00156547, global = -1.42276e-17, cumulative = -5.77996e-17
rho min/max : 1.18148 1.24169
DILUPBiCGStab:  Solving for omega, Initial residual = 6.43629e-05, Final residual = 2.55222e-06, No Iterations 1
DILUPBiCGStab:  Solving for k, Initial residual = 0.0152234, Final residual = 0.000608973, No Iterations 1
ExecutionTime = 43.78 s  ClockTime = 47 s

Time = 119

DILUPBiCGStab:  Solving for h, Initial residual = 0.00292444, Final residual = 1.57331e-05, No Iterations 1
GAMG:  Solving for p_rgh, Initial residual = 0.00376443, Final residual = 2.03292e-05, No Iterations 2
time step continuity errors : sum local = 0.00151893, global = -2.8078e-17, cumulative = -8.58776e-17
rho min/max : 1.18144 1.24185
DILUPBiCGStab:  Solving for omega, Initial residual = 6.447e-05, Final residual = 2.58636e-06, No Iterations 1
DILUPBiCGStab:  Solving for k, Initial residual = 0.0153717, Final residual = 0.00061633, No Iterations 1
ExecutionTime = 44.05 s  ClockTime = 47 s

Time = 120

DILUPBiCGStab:  Solving for h, Initial residual = 0.0029125, Final residual = 1.56729e-05, No Iterations 1
GAMG:  Solving for p_rgh, Initial residual = 0.00369206, Final residual = 1.97693e-05, No Iterations 2
time step continuity errors : sum local = 0.00148049, global = 4.9401e-18, cumulative = -8.09375e-17
rho min/max : 1.1814 1.242
DILUPBiCGStab:  Solving for omega, Initial residual = 6.43598e-05, Final residual = 2.5882e-06, No Iterations 1
DILUPBiCGStab:  Solving for k, Initial residual = 0.0155581, Final residual = 0.000628104, No Iterations 1
ExecutionTime = 44.39 s  ClockTime = 47 s

Time = 121

DILUPBiCGStab:  Solving for h, Initial residual = 0.00290156, Final residual = 1.56353e-05, No Iterations 1
GAMG:  Solving for p_rgh, Initial residual = 0.00366319, Final residual = 1.91644e-05, No Iterations 2
time step continuity errors : sum local = 0.00143742, global = 1.81456e-17, cumulative = -6.27919e-17
rho min/max : 1.18136 1.24215
DILUPBiCGStab:  Solving for omega, Initial residual = 6.52882e-05, Final residual = 2.63724e-06, No Iterations 1
DILUPBiCGStab:  Solving for k, Initial residual = 0.0156678, Final residual = 0.00063051, No Iterations 1
ExecutionTime = 44.63 s  ClockTime = 48 s

Time = 122

DILUPBiCGStab:  Solving for h, Initial residual = 0.00288812, Final residual = 1.55214e-05, No Iterations 1
GAMG:  Solving for p_rgh, Initial residual = 0.0036421, Final residual = 1.82686e-05, No Iterations 2
time step continuity errors : sum local = 0.00136868, global = -1.25446e-18, cumulative = -6.40464e-17
rho min/max : 1.18132 1.2423
DILUPBiCGStab:  Solving for omega, Initial residual = 6.50776e-05, Final residual = 2.62951e-06, No Iterations 1
DILUPBiCGStab:  Solving for k, Initial residual = 0.0157494, Final residual = 0.000637111, No Iterations 1
ExecutionTime = 44.9 s  ClockTime = 48 s

Time = 123

DILUPBiCGStab:  Solving for h, Initial residual = 0.00287565, Final residual = 1.53672e-05, No Iterations 1
GAMG:  Solving for p_rgh, Initial residual = 0.00358712, Final residual = 1.76163e-05, No Iterations 2
time step continuity errors : sum local = 0.00131619, global = -2.24312e-17, cumulative = -8.64776e-17
rho min/max : 1.18128 1.24245
DILUPBiCGStab:  Solving for omega, Initial residual = 6.5205e-05, Final residual = 2.65598e-06, No Iterations 1
DILUPBiCGStab:  Solving for k, Initial residual = 0.01573, Final residual = 0.000638432, No Iterations 1
ExecutionTime = 45.23 s  ClockTime = 48 s

Time = 124

DILUPBiCGStab:  Solving for h, Initial residual = 0.00286377, Final residual = 1.53126e-05, No Iterations 1
GAMG:  Solving for p_rgh, Initial residual = 0.0035405, Final residual = 1.70527e-05, No Iterations 2
time step continuity errors : sum local = 0.00127231, global = -2.68982e-17, cumulative = -1.13376e-16
rho min/max : 1.18124 1.2426
DILUPBiCGStab:  Solving for omega, Initial residual = 6.52309e-05, Final residual = 2.66713e-06, No Iterations 1
DILUPBiCGStab:  Solving for k, Initial residual = 0.0156841, Final residual = 0.000631647, No Iterations 1
ExecutionTime = 45.49 s  ClockTime = 48 s

Time = 125

DILUPBiCGStab:  Solving for h, Initial residual = 0.0028501, Final residual = 1.51481e-05, No Iterations 1
GAMG:  Solving for p_rgh, Initial residual = 0.00352867, Final residual = 1.67994e-05, No Iterations 2
time step continuity errors : sum local = 0.00125469, global = 1.07414e-17, cumulative = -1.02634e-16
rho min/max : 1.1812 1.24275
DILUPBiCGStab:  Solving for omega, Initial residual = 6.55842e-05, Final residual = 2.68123e-06, No Iterations 1
DILUPBiCGStab:  Solving for k, Initial residual = 0.0155871, Final residual = 0.000629795, No Iterations 1
ExecutionTime = 45.74 s  ClockTime = 49 s

Time = 126

DILUPBiCGStab:  Solving for h, Initial residual = 0.00283703, Final residual = 1.51107e-05, No Iterations 1
GAMG:  Solving for p_rgh, Initial residual = 0.00349878, Final residual = 1.63134e-05, No Iterations 2
time step continuity errors : sum local = 0.00121134, global = -6.84775e-18, cumulative = -1.09482e-16
rho min/max : 1.18116 1.24289
DILUPBiCGStab:  Solving for omega, Initial residual = 6.53888e-05, Final residual = 2.65126e-06, No Iterations 1
DILUPBiCGStab:  Solving for k, Initial residual = 0.0155074, Final residual = 0.000624238, No Iterations 1
[...]
ExecutionTime = 330 s  ClockTime = 339 s

Time = 969

DILUPBiCGStab:  Solving for h, Initial residual = 0.00108302, Final residual = 3.28835e-06, No Iterations 1
GAMG:  Solving for p_rgh, Initial residual = 0.000600044, Final residual = 3.90054e-06, No Iterations 2
time step continuity errors : sum local = 0.000261718, global = 3.75032e-18, cumulative = 1.15053e-16
rho min/max : 1.17138 1.26278
DILUPBiCGStab:  Solving for omega, Initial residual = 1.14764e-05, Final residual = 3.21053e-07, No Iterations 1
DILUPBiCGStab:  Solving for k, Initial residual = 0.000582735, Final residual = 1.48809e-05, No Iterations 1
ExecutionTime = 330.34 s  ClockTime = 339 s

Time = 970

DILUPBiCGStab:  Solving for h, Initial residual = 0.00108416, Final residual = 3.35141e-06, No Iterations 1
GAMG:  Solving for p_rgh, Initial residual = 0.000597935, Final residual = 3.88519e-06, No Iterations 2
time step continuity errors : sum local = 0.000260657, global = 2.22589e-17, cumulative = 1.37312e-16
rho min/max : 1.17138 1.26279
DILUPBiCGStab:  Solving for omega, Initial residual = 1.14285e-05, Final residual = 3.13888e-07, No Iterations 1
DILUPBiCGStab:  Solving for k, Initial residual = 0.000582311, Final residual = 1.50042e-05, No Iterations 1
ExecutionTime = 330.69 s  ClockTime = 340 s

Time = 971

DILUPBiCGStab:  Solving for h, Initial residual = 0.00108483, Final residual = 3.37642e-06, No Iterations 1
GAMG:  Solving for p_rgh, Initial residual = 0.000601024, Final residual = 3.86977e-06, No Iterations 2
time step continuity errors : sum local = 0.000259431, global = -5.58008e-18, cumulative = 1.31732e-16
rho min/max : 1.17138 1.2628
DILUPBiCGStab:  Solving for omega, Initial residual = 1.15208e-05, Final residual = 3.2343e-07, No Iterations 1
DILUPBiCGStab:  Solving for k, Initial residual = 0.000584161, Final residual = 1.51685e-05, No Iterations 1
ExecutionTime = 331.08 s  ClockTime = 340 s

Time = 972

DILUPBiCGStab:  Solving for h, Initial residual = 0.00108578, Final residual = 3.4186e-06, No Iterations 1
GAMG:  Solving for p_rgh, Initial residual = 0.000602414, Final residual = 3.85522e-06, No Iterations 2
time step continuity errors : sum local = 0.000258884, global = -3.4738e-18, cumulative = 1.28258e-16
rho min/max : 1.17138 1.26281
DILUPBiCGStab:  Solving for omega, Initial residual = 1.14722e-05, Final residual = 3.13104e-07, No Iterations 1
DILUPBiCGStab:  Solving for k, Initial residual = 0.000583878, Final residual = 1.49402e-05, No Iterations 1
ExecutionTime = 331.41 s  ClockTime = 341 s

Time = 973

DILUPBiCGStab:  Solving for h, Initial residual = 0.00108619, Final residual = 3.39997e-06, No Iterations 1
GAMG:  Solving for p_rgh, Initial residual = 0.000601993, Final residual = 3.83508e-06, No Iterations 2
time step continuity errors : sum local = 0.000257233, global = -5.71373e-18, cumulative = 1.22544e-16
rho min/max : 1.17138 1.26282
DILUPBiCGStab:  Solving for omega, Initial residual = 1.16198e-05, Final residual = 3.23888e-07, No Iterations 1
DILUPBiCGStab:  Solving for k, Initial residual = 0.000584364, Final residual = 1.49918e-05, No Iterations 1
ExecutionTime = 331.74 s  ClockTime = 341 s

Time = 974

DILUPBiCGStab:  Solving for h, Initial residual = 0.001087, Final residual = 3.41273e-06, No Iterations 1
GAMG:  Solving for p_rgh, Initial residual = 0.000606198, Final residual = 3.85438e-06, No Iterations 2
time step continuity errors : sum local = 0.000258445, global = 1.5322e-18, cumulative = 1.24077e-16
rho min/max : 1.17138 1.26283
DILUPBiCGStab:  Solving for omega, Initial residual = 1.17813e-05, Final residual = 3.20224e-07, No Iterations 1
DILUPBiCGStab:  Solving for k, Initial residual = 0.000586776, Final residual = 1.51028e-05, No Iterations 1
ExecutionTime = 332.05 s  ClockTime = 341 s

Time = 975

DILUPBiCGStab:  Solving for h, Initial residual = 0.00108792, Final residual = 3.40567e-06, No Iterations 1
GAMG:  Solving for p_rgh, Initial residual = 0.000606863, Final residual = 3.90489e-06, No Iterations 2
time step continuity errors : sum local = 0.000261895, global = -1.409e-18, cumulative = 1.22668e-16
rho min/max : 1.17137 1.26284
DILUPBiCGStab:  Solving for omega, Initial residual = 1.17725e-05, Final residual = 3.27971e-07, No Iterations 1
DILUPBiCGStab:  Solving for k, Initial residual = 0.000586634, Final residual = 1.5284e-05, No Iterations 1
ExecutionTime = 332.34 s  ClockTime = 342 s

Time = 976

DILUPBiCGStab:  Solving for h, Initial residual = 0.00108932, Final residual = 3.40254e-06, No Iterations 1
GAMG:  Solving for p_rgh, Initial residual = 0.000611732, Final residual = 3.92184e-06, No Iterations 2
time step continuity errors : sum local = 0.000262728, global = 1.78903e-17, cumulative = 1.40558e-16
rho min/max : 1.17137 1.26284
DILUPBiCGStab:  Solving for omega, Initial residual = 1.18155e-05, Final residual = 3.21362e-07, No Iterations 1
DILUPBiCGStab:  Solving for k, Initial residual = 0.000588072, Final residual = 1.52463e-05, No Iterations 1
ExecutionTime = 332.67 s  ClockTime = 342 s

Time = 977

DILUPBiCGStab:  Solving for h, Initial residual = 0.00108996, Final residual = 3.42419e-06, No Iterations 1
GAMG:  Solving for p_rgh, Initial residual = 0.000607434, Final residual = 3.97428e-06, No Iterations 2
time step continuity errors : sum local = 0.000266027, global = -7.88852e-18, cumulative = 1.32669e-16
rho min/max : 1.17137 1.26285
DILUPBiCGStab:  Solving for omega, Initial residual = 1.17567e-05, Final residual = 3.32855e-07, No Iterations 1
DILUPBiCGStab:  Solving for k, Initial residual = 0.000587474, Final residual = 1.52363e-05, No Iterations 1
ExecutionTime = 333.01 s  ClockTime = 342 s

Time = 978

DILUPBiCGStab:  Solving for h, Initial residual = 0.00109096, Final residual = 3.44965e-06, No Iterations 1
GAMG:  Solving for p_rgh, Initial residual = 0.000605184, Final residual = 3.97916e-06, No Iterations 2
time step continuity errors : sum local = 0.000266461, global = 1.55376e-17, cumulative = 1.48207e-16
rho min/max : 1.17137 1.26286
DILUPBiCGStab:  Solving for omega, Initial residual = 1.17703e-05, Final residual = 3.2055e-07, No Iterations 1
DILUPBiCGStab:  Solving for k, Initial residual = 0.000589717, Final residual = 1.54198e-05, No Iterations 1
ExecutionTime = 333.36 s  ClockTime = 343 s

Time = 979

DILUPBiCGStab:  Solving for h, Initial residual = 0.00109195, Final residual = 3.50555e-06, No Iterations 1
GAMG:  Solving for p_rgh, Initial residual = 0.000602176, Final residual = 4.00094e-06, No Iterations 2
time step continuity errors : sum local = 0.000267888, global = 4.54591e-18, cumulative = 1.52753e-16
rho min/max : 1.17137 1.26287
DILUPBiCGStab:  Solving for omega, Initial residual = 1.17571e-05, Final residual = 3.28421e-07, No Iterations 1
DILUPBiCGStab:  Solving for k, Initial residual = 0.000589265, Final residual = 1.51973e-05, No Iterations 1
ExecutionTime = 333.63 s  ClockTime = 343 s

Time = 980

DILUPBiCGStab:  Solving for h, Initial residual = 0.00109262, Final residual = 3.52481e-06, No Iterations 1
GAMG:  Solving for p_rgh, Initial residual = 0.000606652, Final residual = 4.04045e-06, No Iterations 2
time step continuity errors : sum local = 0.000270382, global = -8.39624e-18, cumulative = 1.44357e-16
rho min/max : 1.17136 1.26288
DILUPBiCGStab:  Solving for omega, Initial residual = 1.16782e-05, Final residual = 3.16324e-07, No Iterations 1
DILUPBiCGStab:  Solving for k, Initial residual = 0.000591386, Final residual = 1.54808e-05, No Iterations 1
ExecutionTime = 333.93 s  ClockTime = 343 s

Time = 981

DILUPBiCGStab:  Solving for h, Initial residual = 0.00109356, Final residual = 3.57815e-06, No Iterations 1
GAMG:  Solving for p_rgh, Initial residual = 0.000605073, Final residual = 4.07653e-06, No Iterations 2
time step continuity errors : sum local = 0.000272599, global = -8.67736e-18, cumulative = 1.35679e-16
rho min/max : 1.17136 1.26289
DILUPBiCGStab:  Solving for omega, Initial residual = 1.18416e-05, Final residual = 3.31389e-07, No Iterations 1
DILUPBiCGStab:  Solving for k, Initial residual = 0.000590672, Final residual = 1.52121e-05, No Iterations 1
ExecutionTime = 334.25 s  ClockTime = 343 s

Time = 982

DILUPBiCGStab:  Solving for h, Initial residual = 0.00109408, Final residual = 3.59128e-06, No Iterations 1
GAMG:  Solving for p_rgh, Initial residual = 0.000607017, Final residual = 4.11355e-06, No Iterations 2
time step continuity errors : sum local = 0.000275677, global = 2.85671e-18, cumulative = 1.38536e-16
rho min/max : 1.17136 1.2629
DILUPBiCGStab:  Solving for omega, Initial residual = 1.16971e-05, Final residual = 3.1908e-07, No Iterations 1
DILUPBiCGStab:  Solving for k, Initial residual = 0.000591716, Final residual = 1.56516e-05, No Iterations 1
ExecutionTime = 334.65 s  ClockTime = 344 s

Time = 983

DILUPBiCGStab:  Solving for h, Initial residual = 0.00109485, Final residual = 3.60289e-06, No Iterations 1
GAMG:  Solving for p_rgh, Initial residual = 0.000605332, Final residual = 4.12932e-06, No Iterations 2
time step continuity errors : sum local = 0.000276462, global = 4.69093e-18, cumulative = 1.43227e-16
rho min/max : 1.17136 1.26291
DILUPBiCGStab:  Solving for omega, Initial residual = 1.18605e-05, Final residual = 3.28217e-07, No Iterations 1
DILUPBiCGStab:  Solving for k, Initial residual = 0.000590451, Final residual = 1.54915e-05, No Iterations 1
ExecutionTime = 334.95 s  ClockTime = 344 s

Time = 984

DILUPBiCGStab:  Solving for h, Initial residual = 0.00109565, Final residual = 3.61512e-06, No Iterations 1
GAMG:  Solving for p_rgh, Initial residual = 0.000615777, Final residual = 4.15659e-06, No Iterations 2
time step continuity errors : sum local = 0.000278078, global = -1.82193e-18, cumulative = 1.41405e-16
rho min/max : 1.17136 1.26292
DILUPBiCGStab:  Solving for omega, Initial residual = 1.17454e-05, Final residual = 3.20514e-07, No Iterations 1
DILUPBiCGStab:  Solving for k, Initial residual = 0.000592702, Final residual = 1.55499e-05, No Iterations 1
ExecutionTime = 335.29 s  ClockTime = 345 s

Time = 985

DILUPBiCGStab:  Solving for h, Initial residual = 0.00109617, Final residual = 3.58384e-06, No Iterations 1
GAMG:  Solving for p_rgh, Initial residual = 0.000612157, Final residual = 4.16746e-06, No Iterations 2
time step continuity errors : sum local = 0.000278726, global = -3.99304e-18, cumulative = 1.37412e-16
rho min/max : 1.17135 1.26293
DILUPBiCGStab:  Solving for omega, Initial residual = 1.19212e-05, Final residual = 3.28947e-07, No Iterations 1
DILUPBiCGStab:  Solving for k, Initial residual = 0.000591956, Final residual = 1.54664e-05, No Iterations 1
ExecutionTime = 335.63 s  ClockTime = 345 s

Time = 986

DILUPBiCGStab:  Solving for h, Initial residual = 0.00109675, Final residual = 3.58247e-06, No Iterations 1
GAMG:  Solving for p_rgh, Initial residual = 0.00061337, Final residual = 4.17402e-06, No Iterations 2
time step continuity errors : sum local = 0.000278878, global = -3.60284e-18, cumulative = 1.33809e-16
rho min/max : 1.17135 1.26294
DILUPBiCGStab:  Solving for omega, Initial residual = 1.18442e-05, Final residual = 3.19623e-07, No Iterations 1
DILUPBiCGStab:  Solving for k, Initial residual = 0.000595782, Final residual = 1.56955e-05, No Iterations 1
ExecutionTime = 336.01 s  ClockTime = 345 s

Time = 987

DILUPBiCGStab:  Solving for h, Initial residual = 0.0010978, Final residual = 3.62492e-06, No Iterations 1
GAMG:  Solving for p_rgh, Initial residual = 0.000609774, Final residual = 4.16554e-06, No Iterations 2
time step continuity errors : sum local = 0.000278135, global = 6.34603e-18, cumulative = 1.40155e-16
rho min/max : 1.17135 1.26295
DILUPBiCGStab:  Solving for omega, Initial residual = 1.20302e-05, Final residual = 3.3512e-07, No Iterations 1
DILUPBiCGStab:  Solving for k, Initial residual = 0.000592749, Final residual = 1.54682e-05, No Iterations 1
ExecutionTime = 336.37 s  ClockTime = 346 s

Time = 988

DILUPBiCGStab:  Solving for h, Initial residual = 0.00109872, Final residual = 3.64723e-06, No Iterations 1
GAMG:  Solving for p_rgh, Initial residual = 0.000605678, Final residual = 4.17584e-06, No Iterations 2
time step continuity errors : sum local = 0.000279388, global = 3.18008e-18, cumulative = 1.43335e-16
rho min/max : 1.17135 1.26296
DILUPBiCGStab:  Solving for omega, Initial residual = 1.18748e-05, Final residual = 3.23331e-07, No Iterations 1
DILUPBiCGStab:  Solving for k, Initial residual = 0.000596035, Final residual = 1.57269e-05, No Iterations 1
ExecutionTime = 336.73 s  ClockTime = 346 s

Time = 989

DILUPBiCGStab:  Solving for h, Initial residual = 0.0010998, Final residual = 3.66572e-06, No Iterations 1
GAMG:  Solving for p_rgh, Initial residual = 0.000611363, Final residual = 4.17985e-06, No Iterations 2
time step continuity errors : sum local = 0.000279318, global = 6.98874e-20, cumulative = 1.43405e-16
rho min/max : 1.17135 1.26298
DILUPBiCGStab:  Solving for omega, Initial residual = 1.21241e-05, Final residual = 3.36522e-07, No Iterations 1
DILUPBiCGStab:  Solving for k, Initial residual = 0.000593895, Final residual = 1.55282e-05, No Iterations 1
ExecutionTime = 337.1 s  ClockTime = 346 s

Time = 990

DILUPBiCGStab:  Solving for h, Initial residual = 0.00110053, Final residual = 3.70985e-06, No Iterations 1
GAMG:  Solving for p_rgh, Initial residual = 0.000613617, Final residual = 4.14748e-06, No Iterations 2
time step continuity errors : sum local = 0.000277042, global = 1.00303e-17, cumulative = 1.53435e-16
rho min/max : 1.17134 1.26299
DILUPBiCGStab:  Solving for omega, Initial residual = 1.19024e-05, Final residual = 3.29371e-07, No Iterations 1
DILUPBiCGStab:  Solving for k, Initial residual = 0.00059602, Final residual = 1.5625e-05, No Iterations 1
ExecutionTime = 337.4 s  ClockTime = 347 s

Time = 991

DILUPBiCGStab:  Solving for h, Initial residual = 0.00110126, Final residual = 3.74103e-06, No Iterations 1
GAMG:  Solving for p_rgh, Initial residual = 0.000613766, Final residual = 4.11842e-06, No Iterations 2
time step continuity errors : sum local = 0.000275009, global = -2.05681e-18, cumulative = 1.51379e-16
rho min/max : 1.17134 1.263
DILUPBiCGStab:  Solving for omega, Initial residual = 1.19701e-05, Final residual = 3.34092e-07, No Iterations 1
DILUPBiCGStab:  Solving for k, Initial residual = 0.000594124, Final residual = 1.54129e-05, No Iterations 1
ExecutionTime = 337.76 s  ClockTime = 347 s

Time = 992

DILUPBiCGStab:  Solving for h, Initial residual = 0.00110172, Final residual = 3.75383e-06, No Iterations 1
GAMG:  Solving for p_rgh, Initial residual = 0.000615191, Final residual = 4.08023e-06, No Iterations 2
time step continuity errors : sum local = 0.000272899, global = -4.70015e-18, cumulative = 1.46678e-16
rho min/max : 1.17134 1.26301
DILUPBiCGStab:  Solving for omega, Initial residual = 1.20589e-05, Final residual = 3.31445e-07, No Iterations 1
DILUPBiCGStab:  Solving for k, Initial residual = 0.000595777, Final residual = 1.55108e-05, No Iterations 1
ExecutionTime = 338.1 s  ClockTime = 347 s

Time = 993

DILUPBiCGStab:  Solving for h, Initial residual = 0.00110186, Final residual = 3.78731e-06, No Iterations 1
GAMG:  Solving for p_rgh, Initial residual = 0.00061668, Final residual = 4.02189e-06, No Iterations 2
time step continuity errors : sum local = 0.000268684, global = 5.6022e-18, cumulative = 1.52281e-16
rho min/max : 1.17134 1.26302
DILUPBiCGStab:  Solving for omega, Initial residual = 1.19062e-05, Final residual = 3.34157e-07, No Iterations 1
DILUPBiCGStab:  Solving for k, Initial residual = 0.000596236, Final residual = 1.55878e-05, No Iterations 1
ExecutionTime = 338.45 s  ClockTime = 348 s

Time = 994

DILUPBiCGStab:  Solving for h, Initial residual = 0.00110231, Final residual = 3.76726e-06, No Iterations 1
GAMG:  Solving for p_rgh, Initial residual = 0.000616226, Final residual = 3.98024e-06, No Iterations 2
time step continuity errors : sum local = 0.000265798, global = 5.24181e-18, cumulative = 1.57522e-16
rho min/max : 1.17134 1.26303
DILUPBiCGStab:  Solving for omega, Initial residual = 1.18866e-05, Final residual = 3.29961e-07, No Iterations 1
DILUPBiCGStab:  Solving for k, Initial residual = 0.000598006, Final residual = 1.56985e-05, No Iterations 1
ExecutionTime = 338.81 s  ClockTime = 348 s

Time = 995

DILUPBiCGStab:  Solving for h, Initial residual = 0.00110296, Final residual = 3.76881e-06, No Iterations 1
GAMG:  Solving for p_rgh, Initial residual = 0.000614036, Final residual = 3.99513e-06, No Iterations 2
time step continuity errors : sum local = 0.000266488, global = -5.76458e-18, cumulative = 1.51758e-16
rho min/max : 1.17134 1.26304
DILUPBiCGStab:  Solving for omega, Initial residual = 1.19683e-05, Final residual = 3.35331e-07, No Iterations 1
DILUPBiCGStab:  Solving for k, Initial residual = 0.000597771, Final residual = 1.57896e-05, No Iterations 1
ExecutionTime = 339.12 s  ClockTime = 348 s

Time = 996

DILUPBiCGStab:  Solving for h, Initial residual = 0.00110373, Final residual = 3.79872e-06, No Iterations 1
GAMG:  Solving for p_rgh, Initial residual = 0.000613379, Final residual = 3.99625e-06, No Iterations 2
time step continuity errors : sum local = 0.000266546, global = -4.07783e-18, cumulative = 1.4768e-16
rho min/max : 1.17133 1.26305
DILUPBiCGStab:  Solving for omega, Initial residual = 1.18604e-05, Final residual = 3.29086e-07, No Iterations 1
DILUPBiCGStab:  Solving for k, Initial residual = 0.000598126, Final residual = 1.58798e-05, No Iterations 1
ExecutionTime = 339.5 s  ClockTime = 349 s

Time = 997

DILUPBiCGStab:  Solving for h, Initial residual = 0.00110442, Final residual = 3.79313e-06, No Iterations 1
GAMG:  Solving for p_rgh, Initial residual = 0.00061299, Final residual = 4.05977e-06, No Iterations 2
time step continuity errors : sum local = 0.000271271, global = 6.66786e-18, cumulative = 1.54348e-16
rho min/max : 1.17133 1.26306
DILUPBiCGStab:  Solving for omega, Initial residual = 1.20233e-05, Final residual = 3.40162e-07, No Iterations 1
DILUPBiCGStab:  Solving for k, Initial residual = 0.000598064, Final residual = 1.5826e-05, No Iterations 1
ExecutionTime = 339.81 s  ClockTime = 349 s

Time = 998

DILUPBiCGStab:  Solving for h, Initial residual = 0.001105, Final residual = 3.83141e-06, No Iterations 1
GAMG:  Solving for p_rgh, Initial residual = 0.000614681, Final residual = 4.0922e-06, No Iterations 2
time step continuity errors : sum local = 0.000272976, global = -4.73917e-18, cumulative = 1.49609e-16
rho min/max : 1.17133 1.26308
DILUPBiCGStab:  Solving for omega, Initial residual = 1.19092e-05, Final residual = 3.31708e-07, No Iterations 1
DILUPBiCGStab:  Solving for k, Initial residual = 0.000599382, Final residual = 1.59145e-05, No Iterations 1
ExecutionTime = 340.12 s  ClockTime = 349 s

Time = 999

DILUPBiCGStab:  Solving for h, Initial residual = 0.00110551, Final residual = 3.81205e-06, No Iterations 1
GAMG:  Solving for p_rgh, Initial residual = 0.000618667, Final residual = 4.14161e-06, No Iterations 2
time step continuity errors : sum local = 0.000276023, global = -5.86735e-18, cumulative = 1.43741e-16
rho min/max : 1.17133 1.26309
DILUPBiCGStab:  Solving for omega, Initial residual = 1.19297e-05, Final residual = 3.40748e-07, No Iterations 1
DILUPBiCGStab:  Solving for k, Initial residual = 0.000598727, Final residual = 1.58003e-05, No Iterations 1
ExecutionTime = 340.45 s  ClockTime = 350 s

Time = 1000

DILUPBiCGStab:  Solving for h, Initial residual = 0.00110621, Final residual = 3.83133e-06, No Iterations 1
GAMG:  Solving for p_rgh, Initial residual = 0.000615534, Final residual = 4.15864e-06, No Iterations 2
time step continuity errors : sum local = 0.000276978, global = -1.2974e-17, cumulative = 1.30767e-16
rho min/max : 1.17133 1.2631
DILUPBiCGStab:  Solving for omega, Initial residual = 1.18903e-05, Final residual = 3.31944e-07, No Iterations 1
DILUPBiCGStab:  Solving for k, Initial residual = 0.000599429, Final residual = 1.57742e-05, No Iterations 1
ExecutionTime = 341.95 s  ClockTime = 351 s

End

